
=================
  PFLOTRAN v4.0
=================

 Extent of Gridded Domain
  X: 0.0000000000000000 - 0.20000000000000001
  Y: 0.0000000000000000 - 0.20000000000000001
  Z: 0.0000000000000000 - 1.0000000000000000


=+=+=+=+=+=+=+=+=+=+=+=+=+=+=+=+=+=+=+=+=+=+=+=+=+=+=+=+=+=+=+=+=+=+=+=+=+=+=+=+

  Initial Condition

--------------------------------------------------------------------------------
          Flow Condition:   initial
                  Region:   all
--------------------------------------------------------------------------------

  Flow Condition: initial
    Synchronize time with update: no
    Time units: yr
    Length units: m
      Datum:

    Sub Condition: pressure
      Type: dirichlet
      Gradient:
      Data:
        Dataset: Unnamed Ascii Dataset
          Type: dataset_ascii_type
          Transient: no
          Array Rank:  1

--------------------------------------------------------------------------------

=+=+=+=+=+=+=+=+=+=+=+=+=+=+=+=+=+=+=+=+=+=+=+=+=+=+=+=+=+=+=+=+=+=+=+=+=+=+=+=+

  Boundary Condition

--------------------------------------------------------------------------------
          Flow Condition:   top_bc
                  Region:   top
--------------------------------------------------------------------------------

  Flow Condition: top_bc
    Synchronize time with update: no
    Time units: yr
    Length units: m
      Datum:

    Sub Condition: pressure
      Type: dirichlet
      Gradient:
      Data:
        Dataset: Unnamed Ascii Dataset
          Type: dataset_ascii_type
          Transient: no
          Array Rank:  1

--------------------------------------------------------------------------------

 Requested processors and decomposition =     1, npx,y,z=   -1  -1  -1
 Actual decomposition: npx,y,z=    1   1   1


FLOW Time Stepper
acceleration: on
acceleration threshold: 5
number of ramp entries: 5
ramp entry #1: 2.0000
ramp entry #2: 2.0000
ramp entry #3: 2.0000
ramp entry #4: 2.0000
ramp entry #5: 2.0000
ramp entry #6: 1.8000
ramp entry #7: 1.6000
ramp entry #8: 1.4000
ramp entry #9: 1.2000
ramp entry #10: 1.0000
ramp entry #11: 1.0000
ramp entry #12: 1.0000
ramp entry #13: 1.0000
maximum number of steps: 999999
constant time steps threshold: 5
maximum number of cuts: 16
reduction factor: 5.000000E-01
maximum growth factor: 2.000000E+00

FLOW Newton Solver
atol: 1.000000E-50
rtol: 1.000000E-08
stol: 1.000000E-08
dtol: 1.000000E+04
maxnorm: 1.000000E+20
inftolres: -9.990000E+02
inftolupd: -9.990000E+02
inftolrelupd: -9.990000E+02
inftolsclres: -9.990000E+02
max iter: 20
min iter: 1
maxf: 10000
matrix type: baij
precond. matrix type: baij
inexact newton: off
print convergence: on
print detailed convergence: off
check infinity norm: on

FLOW Linear Solver
solver: bcgs
preconditioner: ilu
atol: 1.000000E-50
rtol: 1.000000E-05
dtol: 1.000000E+04
maximum iteration: 10000

== RICHARDS FLOW ===============================================================
  0 2r: 1.47E-03 2x: 0.00E+00 2u: 0.00E+00 ir: 1.47E-03 iu: 0.00E+00 rsn:   0
  1 2r: 9.27E-04 2x: 9.21E+05 2u: 9.97E+03 ir: 6.60E-04 iu: 9.90E+03 rsn:   0
  2 2r: 6.49E-04 2x: 9.22E+05 2u: 8.80E+03 ir: 4.64E-04 iu: 8.57E+03 rsn:   0
  3 2r: 2.86E-04 2x: 9.22E+05 2u: 1.98E+03 ir: 2.03E-04 iu: 1.77E+03 rsn:   0
  4 2r: 6.03E-05 2x: 9.23E+05 2u: 4.38E+03 ir: 4.72E-05 iu: 3.30E+03 rsn:   0
  5 2r: 1.49E-05 2x: 9.24E+05 2u: 3.49E+03 ir: 1.06E-05 iu: 2.57E+03 rsn:   0
  6 2r: 6.40E-07 2x: 9.24E+05 2u: 5.46E+02 ir: 5.35E-07 iu: 4.69E+02 rsn:   0
  7 2r: 3.51E-09 2x: 9.24E+05 2u: 8.38E+01 ir: 2.40E-09 iu: 7.00E+01 rsn:   0
  8 2r: 1.64E-13 2x: 9.24E+05 2u: 7.06E-01 ir: 1.37E-13 iu: 5.31E-01 rsn: rtol
 Step      1 Time=  8.33333E-02 Dt=  8.33333E-02 [hour] snes_conv_reason:    3
  newton =   8 [       8] linear =     8 [         8] cuts =  0 [   0]
  --> max chng: dpmx=   9.6124E+03

== RICHARDS FLOW ===============================================================
  0 2r: 2.42E-05 2x: 0.00E+00 2u: 0.00E+00 ir: 1.51E-05 iu: 0.00E+00 rsn:   0
  1 2r: 6.43E-06 2x: 9.24E+05 2u: 2.68E+03 ir: 4.42E-06 iu: 1.70E+03 rsn:   0
  2 2r: 5.19E-07 2x: 9.24E+05 2u: 3.29E+02 ir: 3.51E-07 iu: 2.14E+02 rsn:   0
  3 2r: 2.85E-09 2x: 9.24E+05 2u: 2.54E+01 ir: 2.35E-09 iu: 1.85E+01 rsn:   0
  4 2r: 1.00E-13 2x: 9.24E+05 2u: 1.42E-01 ir: 7.90E-14 iu: 9.63E-02 rsn: rtol
 Step      2 Time=  1.10833E-01 Dt=  2.75000E-02 [hour] snes_conv_reason:    3
  newton =   4 [      12] linear =     4 [        12] cuts =  0 [   0]
  --> max chng: dpmx=   1.6594E+03

== RICHARDS FLOW ===============================================================
  0 2r: 1.37E-05 2x: 0.00E+00 2u: 0.00E+00 ir: 8.81E-06 iu: 0.00E+00 rsn:   0
  1 2r: 1.84E-05 2x: 9.25E+05 2u: 5.27E+03 ir: 1.68E-05 iu: 3.86E+03 rsn:   0
  2 2r: 4.64E-06 2x: 9.25E+05 2u: 1.03E+03 ir: 4.07E-06 iu: 7.15E+02 rsn:   0
  3 2r: 3.43E-07 2x: 9.25E+05 2u: 4.76E+02 ir: 2.64E-07 iu: 4.33E+02 rsn:   0
  4 2r: 1.72E-09 2x: 9.25E+05 2u: 1.89E+01 ir: 1.37E-09 iu: 1.10E+01 rsn:   0
  5 2r: 5.12E-14 2x: 9.25E+05 2u: 1.28E-01 ir: 3.88E-14 iu: 9.70E-02 rsn: rtol
 Step      3 Time=  1.65833E-01 Dt=  5.50000E-02 [hour] snes_conv_reason:    3
  newton =   5 [      17] linear =     5 [        17] cuts =  0 [   0]
  --> max chng: dpmx=   3.1494E+03

== RICHARDS FLOW ===============================================================
  0 2r: 1.02E-05 2x: 0.00E+00 2u: 0.00E+00 ir: 6.44E-06 iu: 0.00E+00 rsn:   0
  1 2r: 2.20E-06 2x: 9.25E+05 2u: 1.33E+03 ir: 1.39E-06 iu: 8.72E+02 rsn:   0
  2 2r: 2.33E-08 2x: 9.25E+05 2u: 9.18E+01 ir: 1.77E-08 iu: 7.80E+01 rsn:   0
  3 2r: 5.72E-12 2x: 9.25E+05 2u: 1.58E+00 ir: 5.02E-12 iu: 1.14E+00 rsn:   0
  4 2r: 4.94E-19 2x: 9.25E+05 2u: 3.65E-04 ir: 3.52E-19 iu: 2.79E-04 rsn: rtol
 Step      4 Time=  1.83983E-01 Dt=  1.81500E-02 [hour] snes_conv_reason:    3
  newton =   4 [      21] linear =     4 [        21] cuts =  0 [   0]
  --> max chng: dpmx=   7.9673E+02

== RICHARDS FLOW ===============================================================
  0 2r: 9.46E-06 2x: 0.00E+00 2u: 0.00E+00 ir: 6.20E-06 iu: 0.00E+00 rsn:   0
  1 2r: 3.05E-06 2x: 9.26E+05 2u: 2.71E+03 ir: 2.55E-06 iu: 2.09E+03 rsn:   0
  2 2r: 1.74E-07 2x: 9.26E+05 2u: 3.75E+02 ir: 1.10E-07 iu: 2.93E+02 rsn:   0
  3 2r: 4.80E-10 2x: 9.26E+05 2u: 2.92E+01 ir: 4.16E-10 iu: 2.30E+01 rsn:   0
  4 2r: 7.08E-15 2x: 9.26E+05 2u: 7.71E-02 ir: 6.07E-15 iu: 6.10E-02 rsn: rtol
 Step      5 Time=  2.20283E-01 Dt=  3.63000E-02 [hour] snes_conv_reason:    3
  newton =   4 [      25] linear =     4 [        25] cuts =  0 [   0]
  --> max chng: dpmx=   1.7760E+03

== RICHARDS FLOW ===============================================================
  0 2r: 8.34E-06 2x: 0.00E+00 2u: 0.00E+00 ir: 5.15E-06 iu: 0.00E+00 rsn:   0
  1 2r: 1.79E-06 2x: 9.26E+05 2u: 1.99E+03 ir: 1.59E-06 iu: 1.32E+03 rsn:   0
  2 2r: 8.21E-08 2x: 9.26E+05 2u: 1.85E+02 ir: 7.00E-08 iu: 1.57E+02 rsn:   0
  3 2r: 1.13E-10 2x: 9.26E+05 2u: 6.96E+00 ir: 9.44E-11 iu: 5.13E+00 rsn:   0
  4 2r: 2.15E-16 2x: 9.26E+05 2u: 1.05E-02 ir: 1.81E-16 iu: 7.13E-03 rsn: rtol
 Step      6 Time=  2.50000E-01 Dt=  2.97167E-02 [hour] snes_conv_reason:    3
  newton =   4 [      29] linear =     4 [        29] cuts =  0 [   0]
  --> max chng: dpmx=   1.2704E+03

== RICHARDS FLOW ===============================================================
  0 2r: 7.66E-06 2x: 0.00E+00 2u: 0.00E+00 ir: 5.06E-06 iu: 0.00E+00 rsn:   0
  1 2r: 9.79E-06 2x: 9.27E+05 2u: 4.82E+03 ir: 7.50E-06 iu: 3.63E+03 rsn:   0
  2 2r: 2.61E-06 2x: 9.27E+05 2u: 8.81E+02 ir: 2.00E-06 iu: 7.52E+02 rsn:   0
  3 2r: 1.78E-07 2x: 9.27E+05 2u: 3.78E+02 ir: 1.47E-07 iu: 2.89E+02 rsn:   0
  4 2r: 1.07E-09 2x: 9.27E+05 2u: 2.89E+01 ir: 8.68E-10 iu: 1.79E+01 rsn:   0
  5 2r: 3.61E-14 2x: 9.27E+05 2u: 1.61E-01 ir: 2.96E-14 iu: 1.08E-01 rsn: rtol
 Step      7 Time=  3.22600E-01 Dt=  7.26000E-02 [hour] snes_conv_reason:    3
  newton =   5 [      34] linear =     5 [        34] cuts =  0 [   0]
  --> max chng: dpmx=   2.6595E+03

== RICHARDS FLOW ===============================================================
  0 2r: 6.51E-06 2x: 0.00E+00 2u: 0.00E+00 ir: 4.11E-06 iu: 0.00E+00 rsn:   0
  1 2r: 6.07E-07 2x: 9.28E+05 2u: 1.21E+03 ir: 5.50E-07 iu: 8.47E+02 rsn:   0
  2 2r: 6.61E-09 2x: 9.28E+05 2u: 7.09E+01 ir: 6.30E-09 iu: 4.87E+01 rsn:   0
  3 2r: 6.71E-13 2x: 9.28E+05 2u: 4.82E-01 ir: 5.54E-13 iu: 4.11E-01 rsn:   0
  4 2r: 1.45E-18 2x: 9.28E+05 2u: 4.69E-05 ir: 9.35E-19 iu: 3.32E-05 rsn: rtol
 Step      8 Time=  3.46558E-01 Dt=  2.39580E-02 [hour] snes_conv_reason:    3
  newton =   4 [      38] linear =     4 [        38] cuts =  0 [   0]
  --> max chng: dpmx=   8.0141E+02

== RICHARDS FLOW ===============================================================
  0 2r: 6.22E-06 2x: 0.00E+00 2u: 0.00E+00 ir: 3.91E-06 iu: 0.00E+00 rsn:   0
  1 2r: 1.81E-06 2x: 9.28E+05 2u: 2.49E+03 ir: 1.33E-06 iu: 1.72E+03 rsn:   0
  2 2r: 1.26E-07 2x: 9.28E+05 2u: 2.83E+02 ir: 1.00E-07 iu: 2.44E+02 rsn:   0
  3 2r: 4.56E-10 2x: 9.28E+05 2u: 1.95E+01 ir: 3.88E-10 iu: 1.37E+01 rsn:   0
  4 2r: 5.85E-15 2x: 9.28E+05 2u: 6.80E-02 ir: 4.85E-15 iu: 4.84E-02 rsn: rtol
 Step      9 Time=  3.94474E-01 Dt=  4.79160E-02 [hour] snes_conv_reason:    3
  newton =   4 [      42] linear =     4 [        42] cuts =  0 [   0]
  --> max chng: dpmx=   1.4587E+03

== RICHARDS FLOW ===============================================================
  0 2r: 5.76E-06 2x: 0.00E+00 2u: 0.00E+00 ir: 3.54E-06 iu: 0.00E+00 rsn:   0
  1 2r: 6.28E-06 2x: 9.29E+05 2u: 4.92E+03 ir: 3.69E-06 iu: 3.59E+03 rsn:   0
  2 2r: 1.46E-06 2x: 9.29E+05 2u: 8.87E+02 ir: 9.95E-07 iu: 7.12E+02 rsn:   0
  3 2r: 7.85E-08 2x: 9.29E+05 2u: 3.18E+02 ir: 6.50E-08 iu: 2.41E+02 rsn:   0
  4 2r: 3.04E-10 2x: 9.29E+05 2u: 1.77E+01 ir: 2.44E-10 iu: 1.15E+01 rsn:   0
  5 2r: 3.74E-15 2x: 9.29E+05 2u: 5.93E-02 ir: 3.07E-15 iu: 3.98E-02 rsn: rtol
 Step     10 Time=  4.90306E-01 Dt=  9.58320E-02 [hour] snes_conv_reason:    3
  newton =   5 [      47] linear =     5 [        47] cuts =  0 [   0]
  --> max chng: dpmx=   2.7033E+03

== RICHARDS FLOW ===============================================================
  0 2r: 5.08E-06 2x: 0.00E+00 2u: 0.00E+00 ir: 2.94E-06 iu: 0.00E+00 rsn:   0
  1 2r: 9.60E-08 2x: 9.29E+05 2u: 3.64E+02 ir: 7.68E-08 iu: 2.18E+02 rsn:   0
  2 2r: 5.80E-11 2x: 9.29E+05 2u: 5.96E+00 ir: 5.61E-11 iu: 4.76E+00 rsn:   0
  3 2r: 2.86E-17 2x: 9.29E+05 2u: 3.03E-03 ir: 2.63E-17 iu: 2.96E-03 rsn: rtol
 Step     11 Time=  5.00000E-01 Dt=  9.69400E-03 [hour] snes_conv_reason:    3
  newton =   3 [      50] linear =     3 [        50] cuts =  0 [   0]
  --> max chng: dpmx=   2.1486E+02

== RICHARDS FLOW ===============================================================
  0 2r: 5.04E-06 2x: 0.00E+00 2u: 0.00E+00 ir: 2.98E-06 iu: 0.00E+00 rsn:   0
  1 2r: 4.91E-07 2x: 9.30E+05 2u: 1.26E+03 ir: 3.91E-07 iu: 8.54E+02 rsn:   0
  2 2r: 4.91E-09 2x: 9.29E+05 2u: 7.31E+01 ir: 4.49E-09 iu: 4.87E+01 rsn:   0
  3 2r: 5.73E-13 2x: 9.29E+05 2u: 5.32E-01 ir: 3.70E-13 iu: 3.94E-01 rsn:   0
  4 2r: 7.56E-18 2x: 9.29E+05 2u: 3.45E-05 ir: 5.38E-18 iu: 2.82E-05 rsn: rtol
 Step     12 Time=  5.31625E-01 Dt=  3.16246E-02 [hour] snes_conv_reason:    3
  newton =   4 [      54] linear =     4 [        54] cuts =  0 [   0]
  --> max chng: dpmx=   8.0496E+02

== RICHARDS FLOW ===============================================================
  0 2r: 4.89E-06 2x: 0.00E+00 2u: 0.00E+00 ir: 2.89E-06 iu: 0.00E+00 rsn:   0
  1 2r: 1.84E-06 2x: 9.30E+05 2u: 2.66E+03 ir: 1.07E-06 iu: 1.71E+03 rsn:   0
  2 2r: 1.09E-07 2x: 9.30E+05 2u: 3.11E+02 ir: 8.62E-08 iu: 2.48E+02 rsn:   0
  3 2r: 4.54E-10 2x: 9.30E+05 2u: 1.89E+01 ir: 3.76E-10 iu: 1.34E+01 rsn:   0
  4 2r: 6.92E-15 2x: 9.30E+05 2u: 7.66E-02 ir: 5.69E-15 iu: 5.30E-02 rsn: rtol
 Step     13 Time=  5.94874E-01 Dt=  6.32491E-02 [hour] snes_conv_reason:    3
  newton =   4 [      58] linear =     4 [        58] cuts =  0 [   0]
  --> max chng: dpmx=   1.4872E+03

== RICHARDS FLOW ===============================================================
  0 2r: 4.62E-06 2x: 0.00E+00 2u: 0.00E+00 ir: 2.69E-06 iu: 0.00E+00 rsn:   0
  1 2r: 6.04E-06 2x: 9.31E+05 2u: 5.30E+03 ir: 4.20E-06 iu: 3.59E+03 rsn:   0
  2 2r: 1.61E-06 2x: 9.31E+05 2u: 9.81E+02 ir: 1.17E-06 iu: 7.33E+02 rsn:   0
  3 2r: 1.14E-07 2x: 9.31E+05 2u: 3.25E+02 ir: 9.04E-08 iu: 1.93E+02 rsn:   0
  4 2r: 6.23E-10 2x: 9.31E+05 2u: 2.36E+01 ir: 4.99E-10 iu: 1.49E+01 rsn:   0
  5 2r: 1.84E-14 2x: 9.31E+05 2u: 1.27E-01 ir: 1.47E-14 iu: 8.16E-02 rsn: rtol
 Step     14 Time=  7.21372E-01 Dt=  1.26498E-01 [hour] snes_conv_reason:    3
  newton =   5 [      63] linear =     5 [        63] cuts =  0 [   0]
  --> max chng: dpmx=   2.6597E+03

== RICHARDS FLOW ===============================================================
  0 2r: 4.14E-06 2x: 0.00E+00 2u: 0.00E+00 ir: 2.32E-06 iu: 0.00E+00 rsn:   0
  1 2r: 2.24E-07 2x: 9.31E+05 2u: 9.08E+02 ir: 1.82E-07 iu: 5.71E+02 rsn:   0
  2 2r: 1.01E-09 2x: 9.31E+05 2u: 3.51E+01 ir: 9.72E-10 iu: 2.38E+01 rsn:   0
  3 2r: 2.18E-14 2x: 9.31E+05 2u: 1.15E-01 ir: 1.90E-14 iu: 9.12E-02 rsn: rtol
 Step     15 Time=  7.50000E-01 Dt=  2.86281E-02 [hour] snes_conv_reason:    3
  newton =   3 [      66] linear =     3 [        66] cuts =  0 [   0]
  --> max chng: dpmx=   5.4819E+02

== RICHARDS FLOW ===============================================================
  0 2r: 4.07E-06 2x: 0.00E+00 2u: 0.00E+00 ir: 2.30E-06 iu: 0.00E+00 rsn:   0
  1 2r: 3.83E-07 2x: 9.32E+05 2u: 1.37E+03 ir: 2.75E-07 iu: 8.56E+02 rsn:   0
  2 2r: 4.75E-09 2x: 9.32E+05 2u: 7.88E+01 ir: 3.20E-09 iu: 6.29E+01 rsn:   0
  3 2r: 6.53E-13 2x: 9.32E+05 2u: 8.69E-01 ir: 5.64E-13 iu: 6.26E-01 rsn:   0
  4 2r: 1.95E-18 2x: 9.32E+05 2u: 1.14E-04 ir: 1.50E-18 iu: 8.99E-05 rsn: rtol
 Step     16 Time=  7.91744E-01 Dt=  4.17444E-02 [hour] snes_conv_reason:    3
  newton =   4 [      70] linear =     4 [        70] cuts =  0 [   0]
  --> max chng: dpmx=   7.9285E+02

== RICHARDS FLOW ===============================================================
  0 2r: 3.98E-06 2x: 0.00E+00 2u: 0.00E+00 ir: 2.15E-06 iu: 0.00E+00 rsn:   0
  1 2r: 1.21E-06 2x: 9.33E+05 2u: 2.89E+03 ir: 9.86E-07 iu: 1.92E+03 rsn:   0
  2 2r: 7.39E-08 2x: 9.33E+05 2u: 3.48E+02 ir: 6.59E-08 iu: 2.31E+02 rsn:   0
  3 2r: 1.90E-10 2x: 9.33E+05 2u: 1.97E+01 ir: 1.75E-10 iu: 1.46E+01 rsn:   0
  4 2r: 1.43E-15 2x: 9.33E+05 2u: 3.17E-02 ir: 1.15E-15 iu: 2.31E-02 rsn: rtol
 Step     17 Time=  8.75233E-01 Dt=  8.34888E-02 [hour] snes_conv_reason:    3
  newton =   4 [      74] linear =     4 [        74] cuts =  0 [   0]
  --> max chng: dpmx=   1.6823E+03

== RICHARDS FLOW ===============================================================
  0 2r: 3.81E-06 2x: 0.00E+00 2u: 0.00E+00 ir: 2.10E-06 iu: 0.00E+00 rsn:   0
  1 2r: 2.77E-06 2x: 9.34E+05 2u: 4.30E+03 ir: 2.12E-06 iu: 2.76E+03 rsn:   0
  2 2r: 3.98E-07 2x: 9.33E+05 2u: 7.07E+02 ir: 3.55E-07 iu: 4.58E+02 rsn:   0
  3 2r: 9.02E-09 2x: 9.34E+05 2u: 1.05E+02 ir: 7.34E-09 iu: 7.86E+01 rsn:   0
  4 2r: 3.35E-12 2x: 9.34E+05 2u: 1.32E+00 ir: 2.65E-12 iu: 9.80E-01 rsn:   0
  5 2r: 1.45E-18 2x: 9.34E+05 2u: 5.77E-04 ir: 7.59E-19 iu: 3.47E-04 rsn: rtol
 Step     18 Time=  1.00000E+00 Dt=  1.24767E-01 [hour] snes_conv_reason:    3
  newton =   5 [      79] linear =     5 [        79] cuts =  0 [   0]
  --> max chng: dpmx=   2.3354E+03

== RICHARDS FLOW ===============================================================
  0 2r: 3.57E-06 2x: 0.00E+00 2u: 0.00E+00 ir: 1.95E-06 iu: 0.00E+00 rsn:   0
  1 2r: 3.87E-06 2x: 9.35E+05 2u: 5.39E+03 ir: 3.24E-06 iu: 3.41E+03 rsn:   0
  2 2r: 8.53E-07 2x: 9.35E+05 2u: 9.65E+02 ir: 7.36E-07 iu: 6.08E+02 rsn:   0
  3 2r: 3.65E-08 2x: 9.35E+05 2u: 2.63E+02 ir: 3.24E-08 iu: 1.94E+02 rsn:   0
  4 2r: 7.19E-11 2x: 9.35E+05 2u: 7.50E+00 ir: 5.67E-11 iu: 4.94E+00 rsn:   0
  5 2r: 2.11E-16 2x: 9.35E+05 2u: 1.01E-02 ir: 1.65E-16 iu: 6.69E-03 rsn: rtol
 Step     19 Time=  1.16698E+00 Dt=  1.66978E-01 [hour] snes_conv_reason:    3
  newton =   5 [      84] linear =     5 [        84] cuts =  0 [   0]
  --> max chng: dpmx=   2.7365E+03

== RICHARDS FLOW ===============================================================
  0 2r: 3.31E-06 2x: 0.00E+00 2u: 0.00E+00 ir: 1.74E-06 iu: 0.00E+00 rsn:   0
  1 2r: 3.52E-07 2x: 9.35E+05 2u: 1.43E+03 ir: 2.00E-07 iu: 8.18E+02 rsn:   0
  2 2r: 3.81E-09 2x: 9.35E+05 2u: 7.82E+01 ir: 3.05E-09 iu: 5.60E+01 rsn:   0
  3 2r: 6.49E-13 2x: 9.35E+05 2u: 6.66E-01 ir: 5.28E-13 iu: 5.39E-01 rsn:   0
  4 2r: 1.79E-18 2x: 9.35E+05 2u: 9.48E-05 ir: 1.04E-18 iu: 7.03E-05 rsn: rtol
 Step     20 Time=  1.22208E+00 Dt=  5.51026E-02 [hour] snes_conv_reason:    3
  newton =   4 [      88] linear =     4 [        88] cuts =  0 [   0]
  --> max chng: dpmx=   7.8311E+02

== RICHARDS FLOW ===============================================================
  0 2r: 3.27E-06 2x: 0.00E+00 2u: 0.00E+00 ir: 1.69E-06 iu: 0.00E+00 rsn:   0
  1 2r: 1.11E-07 2x: 9.35E+05 2u: 6.98E+02 ir: 8.21E-08 iu: 4.15E+02 rsn:   0
  2 2r: 2.11E-10 2x: 9.35E+05 2u: 1.91E+01 ir: 1.95E-10 iu: 1.29E+01 rsn:   0
  3 2r: 8.70E-16 2x: 9.35E+05 2u: 3.01E-02 ir: 8.30E-16 iu: 2.17E-02 rsn: rtol
 Step     21 Time=  1.25000E+00 Dt=  2.79197E-02 [hour] snes_conv_reason:    3
  newton =   3 [      91] linear =     3 [        91] cuts =  0 [   0]
  --> max chng: dpmx=   4.0184E+02

== RICHARDS FLOW ===============================================================
  0 2r: 3.25E-06 2x: 0.00E+00 2u: 0.00E+00 ir: 1.71E-06 iu: 0.00E+00 rsn:   0
  1 2r: 1.03E-06 2x: 9.36E+05 2u: 3.12E+03 ir: 7.38E-07 iu: 1.85E+03 rsn:   0
  2 2r: 8.31E-08 2x: 9.36E+05 2u: 3.76E+02 ir: 6.78E-08 iu: 2.57E+02 rsn:   0
  3 2r: 4.76E-10 2x: 9.36E+05 2u: 2.07E+01 ir: 3.75E-10 iu: 1.48E+01 rsn:   0
  4 2r: 9.75E-15 2x: 9.36E+05 2u: 8.75E-02 ir: 7.96E-15 iu: 6.16E-02 rsn: rtol
 Step     22 Time=  1.36021E+00 Dt=  1.10205E-01 [hour] snes_conv_reason:    3
  newton =   4 [      95] linear =     4 [        95] cuts =  0 [   0]
  --> max chng: dpmx=   1.6897E+03

== RICHARDS FLOW ===============================================================
  0 2r: 3.15E-06 2x: 0.00E+00 2u: 0.00E+00 ir: 1.64E-06 iu: 0.00E+00 rsn:   0
  1 2r: 1.62E-06 2x: 9.37E+05 2u: 3.93E+03 ir: 1.07E-06 iu: 2.29E+03 rsn:   0
  2 2r: 2.10E-07 2x: 9.37E+05 2u: 5.67E+02 ir: 1.59E-07 iu: 3.87E+02 rsn:   0
  3 2r: 3.19E-09 2x: 9.37E+05 2u: 5.65E+01 ir: 2.48E-09 iu: 3.76E+01 rsn:   0
  4 2r: 5.16E-13 2x: 9.37E+05 2u: 6.66E-01 ir: 4.19E-13 iu: 4.54E-01 rsn:   0
  5 2r: 2.64E-18 2x: 9.37E+05 2u: 1.24E-04 ir: 1.29E-18 iu: 7.84E-05 rsn: rtol
 Step     23 Time=  1.50000E+00 Dt=  1.39795E-01 [hour] snes_conv_reason:    3
  newton =   5 [     100] linear =     5 [       100] cuts =  0 [   0]
  --> max chng: dpmx=   2.0407E+03

== RICHARDS FLOW ===============================================================
  0 2r: 3.04E-06 2x: 0.00E+00 2u: 0.00E+00 ir: 1.56E-06 iu: 0.00E+00 rsn:   0
  1 2r: 4.54E-06 2x: 9.39E+05 2u: 6.23E+03 ir: 3.63E-06 iu: 3.69E+03 rsn:   0
  2 2r: 1.24E-06 2x: 9.39E+05 2u: 1.16E+03 ir: 1.05E-06 iu: 7.15E+02 rsn:   0
  3 2r: 1.09E-07 2x: 9.39E+05 2u: 4.01E+02 ir: 8.80E-08 iu: 2.86E+02 rsn:   0
  4 2r: 6.61E-10 2x: 9.39E+05 2u: 1.99E+01 ir: 5.16E-10 iu: 1.37E+01 rsn:   0
  5 2r: 2.23E-14 2x: 9.39E+05 2u: 1.22E-01 ir: 1.74E-14 iu: 7.46E-02 rsn: rtol
 Step     24 Time=  1.72041E+00 Dt=  2.20411E-01 [hour] snes_conv_reason:    3
  newton =   5 [     105] linear =     5 [       105] cuts =  0 [   0]
  --> max chng: dpmx=   2.9893E+03

== RICHARDS FLOW ===============================================================
  0 2r: 2.86E-06 2x: 0.00E+00 2u: 0.00E+00 ir: 1.44E-06 iu: 0.00E+00 rsn:   0
  1 2r: 9.83E-08 2x: 9.39E+05 2u: 6.21E+02 ir: 5.54E-08 iu: 3.33E+02 rsn:   0
  2 2r: 1.20E-09 2x: 9.39E+05 2u: 1.40E+01 ir: 8.43E-10 iu: 9.81E+00 rsn:   0
  3 2r: 5.58E-13 2x: 9.39E+05 2u: 1.70E-02 ir: 3.94E-13 iu: 1.20E-02 rsn:   0
  4 2r: 2.46E-18 2x: 9.39E+05 2u: 3.16E-06 ir: 1.10E-18 iu: 1.62E-06 rsn: rtol
 Step     25 Time=  1.75000E+00 Dt=  2.95895E-02 [hour] snes_conv_reason:    3
  newton =   4 [     109] linear =     4 [       109] cuts =  0 [   0]
  --> max chng: dpmx=   3.2337E+02

== RICHARDS FLOW ===============================================================
  0 2r: 2.86E-06 2x: 0.00E+00 2u: 0.00E+00 ir: 1.42E-06 iu: 0.00E+00 rsn:   0
  1 2r: 4.74E-07 2x: 9.39E+05 2u: 1.66E+03 ir: 2.75E-07 iu: 9.48E+02 rsn:   0
  2 2r: 4.81E-09 2x: 9.39E+05 2u: 1.01E+02 ir: 4.07E-09 iu: 6.61E+01 rsn:   0
  3 2r: 1.23E-12 2x: 9.39E+05 2u: 1.13E+00 ir: 1.04E-12 iu: 7.92E-01 rsn:   0
  4 2r: 2.09E-18 2x: 9.39E+05 2u: 1.70E-04 ir: 9.89E-19 iu: 1.42E-04 rsn: rtol
 Step     26 Time=  1.82274E+00 Dt=  7.27355E-02 [hour] snes_conv_reason:    3
  newton =   4 [     113] linear =     4 [       113] cuts =  0 [   0]
  --> max chng: dpmx=   8.8929E+02

== RICHARDS FLOW ===============================================================
  0 2r: 2.84E-06 2x: 0.00E+00 2u: 0.00E+00 ir: 1.42E-06 iu: 0.00E+00 rsn:   0
  1 2r: 1.12E-06 2x: 9.40E+05 2u: 3.62E+03 ir: 7.77E-07 iu: 2.11E+03 rsn:   0
  2 2r: 1.09E-07 2x: 9.40E+05 2u: 4.70E+02 ir: 8.97E-08 iu: 3.01E+02 rsn:   0
  3 2r: 9.93E-10 2x: 9.40E+05 2u: 3.48E+01 ir: 7.88E-10 iu: 2.37E+01 rsn:   0
  4 2r: 4.93E-14 2x: 9.40E+05 2u: 1.81E-01 ir: 3.95E-14 iu: 1.34E-01 rsn:   0
  5 2r: 2.21E-18 2x: 9.40E+05 2u: 1.06E-05 ir: 8.47E-19 iu: 6.65E-06 rsn: rtol
 Step     27 Time=  1.96821E+00 Dt=  1.45471E-01 [hour] snes_conv_reason:    3
  newton =   5 [     118] linear =     5 [       118] cuts =  0 [   0]
  --> max chng: dpmx=   1.8729E+03

== RICHARDS FLOW ===============================================================
  0 2r: 2.78E-06 2x: 0.00E+00 2u: 0.00E+00 ir: 1.38E-06 iu: 0.00E+00 rsn:   0
  1 2r: 1.81E-07 2x: 9.41E+05 2u: 6.75E+02 ir: 1.15E-07 iu: 3.79E+02 rsn:   0
  2 2r: 2.68E-07 2x: 9.41E+05 2u: 1.70E+01 ir: 1.89E-07 iu: 1.19E+01 rsn:   0
  3 2r: 6.09E-08 2x: 9.41E+05 2u: 1.63E+00 ir: 4.30E-08 iu: 8.41E-01 rsn:   0
  4 2r: 7.13E-09 2x: 9.41E+05 2u: 1.98E-01 ir: 5.04E-09 iu: 1.01E-01 rsn:   0
  5 2r: 7.69E-11 2x: 9.41E+05 2u: 2.87E-02 ir: 5.44E-11 iu: 1.48E-02 rsn:   0
  6 2r: 8.72E-15 2x: 9.41E+05 2u: 3.17E-04 ir: 6.17E-15 iu: 1.63E-04 rsn: rtol
 Step     28 Time=  2.00000E+00 Dt=  3.17936E-02 [hour] snes_conv_reason:    3
  newton =   6 [     124] linear =     6 [       124] cuts =  0 [   0]
  --> max chng: dpmx=   3.6695E+02

== RICHARDS FLOW ===============================================================
  0 2r: 2.78E-06 2x: 0.00E+00 2u: 0.00E+00 ir: 1.39E-06 iu: 0.00E+00 rsn:   0
  1 2r: 3.86E-07 2x: 9.41E+05 2u: 1.06E+03 ir: 2.59E-07 iu: 5.88E+02 rsn:   0
  2 2r: 1.20E-09 2x: 9.41E+05 2u: 4.23E+01 ir: 6.92E-10 iu: 3.01E+01 rsn:   0
  3 2r: 5.57E-14 2x: 9.41E+05 2u: 1.60E-01 ir: 3.46E-14 iu: 1.33E-01 rsn:   0
  4 2r: 2.63E-18 2x: 9.41E+05 2u: 4.77E-06 ir: 1.17E-18 iu: 3.67E-06 rsn: rtol
 Step     29 Time=  2.04801E+00 Dt=  4.80054E-02 [hour] snes_conv_reason:    3
  newton =   4 [     128] linear =     4 [       128] cuts =  0 [   0]
  --> max chng: dpmx=   5.6951E+02

== RICHARDS FLOW ===============================================================
  0 2r: 2.78E-06 2x: 0.00E+00 2u: 0.00E+00 ir: 1.36E-06 iu: 0.00E+00 rsn:   0
  1 2r: 4.75E-07 2x: 9.41E+05 2u: 2.28E+03 ir: 3.45E-07 iu: 1.37E+03 rsn:   0
  2 2r: 1.53E-08 2x: 9.41E+05 2u: 1.95E+02 ir: 1.16E-08 iu: 1.33E+02 rsn:   0
  3 2r: 9.11E-12 2x: 9.41E+05 2u: 5.19E+00 ir: 7.24E-12 iu: 3.40E+00 rsn:   0
  4 2r: 4.40E-18 2x: 9.41E+05 2u: 3.10E-03 ir: 1.95E-18 iu: 1.75E-03 rsn: rtol
 Step     30 Time=  2.14402E+00 Dt=  9.60108E-02 [hour] snes_conv_reason:    3
  newton =   4 [     132] linear =     4 [       132] cuts =  0 [   0]
  --> max chng: dpmx=   1.2333E+03

== RICHARDS FLOW ===============================================================
  0 2r: 2.75E-06 2x: 0.00E+00 2u: 0.00E+00 ir: 1.38E-06 iu: 0.00E+00 rsn:   0
  1 2r: 5.63E-07 2x: 9.42E+05 2u: 2.54E+03 ir: 4.07E-07 iu: 1.51E+03 rsn:   0
  2 2r: 2.40E-08 2x: 9.42E+05 2u: 2.42E+02 ir: 2.10E-08 iu: 1.59E+02 rsn:   0
  3 2r: 4.32E-11 2x: 9.42E+05 2u: 7.37E+00 ir: 3.55E-11 iu: 5.07E+00 rsn:   0
  4 2r: 8.61E-17 2x: 9.42E+05 2u: 7.73E-03 ir: 6.91E-17 iu: 6.13E-03 rsn: rtol
 Step     31 Time=  2.25000E+00 Dt=  1.05984E-01 [hour] snes_conv_reason:    3
  newton =   4 [     136] linear =     4 [       136] cuts =  0 [   0]
  --> max chng: dpmx=   1.3803E+03

== RICHARDS FLOW ===============================================================
  0 2r: 2.73E-06 2x: 0.00E+00 2u: 0.00E+00 ir: 1.38E-06 iu: 0.00E+00 rsn:   0
  1 2r: 2.07E-06 2x: 9.43E+05 2u: 4.88E+03 ir: 1.56E-06 iu: 2.89E+03 rsn:   0
  2 2r: 5.69E-07 2x: 9.43E+05 2u: 7.97E+02 ir: 3.09E-07 iu: 5.05E+02 rsn:   0
  3 2r: 5.15E-08 2x: 9.43E+05 2u: 1.30E+02 ir: 3.55E-08 iu: 8.98E+01 rsn:   0
  4 2r: 1.24E-09 2x: 9.43E+05 2u: 2.40E+00 ir: 8.76E-10 iu: 1.59E+00 rsn:   0
  5 2r: 6.80E-13 2x: 9.43E+05 2u: 1.34E-02 ir: 4.82E-13 iu: 4.55E-03 rsn:   0
  6 2r: 2.69E-18 2x: 9.43E+05 2u: 7.26E-06 ir: 1.29E-18 iu: 2.11E-06 rsn: rtol
 Step     32 Time=  2.44202E+00 Dt=  1.92022E-01 [hour] snes_conv_reason:    3
  newton =   6 [     142] linear =     6 [       142] cuts =  0 [   0]
  --> max chng: dpmx=   2.4517E+03

== RICHARDS FLOW ===============================================================
  0 2r: 2.65E-06 2x: 0.00E+00 2u: 0.00E+00 ir: 1.32E-06 iu: 0.00E+00 rsn:   0
  1 2r: 2.16E-07 2x: 9.44E+05 2u: 1.22E+03 ir: 1.22E-07 iu: 6.70E+02 rsn:   0
  2 2r: 1.29E-09 2x: 9.44E+05 2u: 5.42E+01 ir: 8.07E-10 iu: 3.85E+01 rsn:   0
  3 2r: 6.41E-14 2x: 9.44E+05 2u: 2.97E-01 ir: 4.85E-14 iu: 2.16E-01 rsn:   0
  4 2r: 2.28E-18 2x: 9.44E+05 2u: 1.42E-05 ir: 1.00E-18 iu: 1.04E-05 rsn: rtol
 Step     33 Time=  2.50000E+00 Dt=  5.79783E-02 [hour] snes_conv_reason:    3
  newton =   4 [     146] linear =     4 [       146] cuts =  0 [   0]
  --> max chng: dpmx=   6.3124E+02

== RICHARDS FLOW ===============================================================
  0 2r: 2.65E-06 2x: 0.00E+00 2u: 0.00E+00 ir: 1.30E-06 iu: 0.00E+00 rsn:   0
  1 2r: 2.03E-07 2x: 9.44E+05 2u: 1.36E+03 ir: 1.42E-07 iu: 7.84E+02 rsn:   0
  2 2r: 1.83E-09 2x: 9.44E+05 2u: 6.84E+01 ir: 1.63E-09 iu: 4.53E+01 rsn:   0
  3 2r: 1.82E-13 2x: 9.44E+05 2u: 4.56E-01 ir: 1.56E-13 iu: 3.39E-01 rsn:   0
  4 2r: 2.61E-18 2x: 9.44E+05 2u: 2.73E-05 ir: 1.48E-18 iu: 2.35E-05 rsn: rtol
 Step     34 Time=  2.56337E+00 Dt=  6.33671E-02 [hour] snes_conv_reason:    3
  newton =   4 [     150] linear =     4 [       150] cuts =  0 [   0]
  --> max chng: dpmx=   7.4391E+02

== RICHARDS FLOW ===============================================================
  0 2r: 2.64E-06 2x: 0.00E+00 2u: 0.00E+00 ir: 1.31E-06 iu: 0.00E+00 rsn:   0
  1 2r: 6.99E-07 2x: 9.45E+05 2u: 2.95E+03 ir: 4.35E-07 iu: 1.65E+03 rsn:   0
  2 2r: 4.39E-08 2x: 9.45E+05 2u: 3.19E+02 ir: 3.18E-08 iu: 2.17E+02 rsn:   0
  3 2r: 1.55E-10 2x: 9.45E+05 2u: 1.36E+01 ir: 1.21E-10 iu: 9.65E+00 rsn:   0
  4 2r: 1.35E-15 2x: 9.45E+05 2u: 3.76E-02 ir: 1.11E-15 iu: 2.64E-02 rsn: rtol
 Step     35 Time=  2.69010E+00 Dt=  1.26734E-01 [hour] snes_conv_reason:    3
  newton =   4 [     154] linear =     4 [       154] cuts =  0 [   0]
  --> max chng: dpmx=   1.5292E+03

== RICHARDS FLOW ===============================================================
  0 2r: 2.62E-06 2x: 0.00E+00 2u: 0.00E+00 ir: 1.28E-06 iu: 0.00E+00 rsn:   0
  1 2r: 1.83E-07 2x: 9.45E+05 2u: 1.28E+03 ir: 1.31E-07 iu: 7.44E+02 rsn:   0
  2 2r: 1.38E-09 2x: 9.45E+05 2u: 6.06E+01 ir: 1.17E-09 iu: 4.10E+01 rsn:   0
  3 2r: 6.41E-14 2x: 9.45E+05 2u: 3.75E-01 ir: 6.05E-14 iu: 2.25E-01 rsn:   0
  4 2r: 2.42E-18 2x: 9.45E+05 2u: 1.28E-05 ir: 1.10E-18 iu: 9.35E-06 rsn: rtol
 Step     36 Time=  2.75000E+00 Dt=  5.98986E-02 [hour] snes_conv_reason:    3
  newton =   4 [     158] linear =     4 [       158] cuts =  0 [   0]
  --> max chng: dpmx=   7.0261E+02

== RICHARDS FLOW ===============================================================
  0 2r: 2.62E-06 2x: 0.00E+00 2u: 0.00E+00 ir: 1.30E-06 iu: 0.00E+00 rsn:   0
  1 2r: 3.74E-06 2x: 9.47E+05 2u: 6.32E+03 ir: 2.79E-06 iu: 3.84E+03 rsn:   0
  2 2r: 9.81E-07 2x: 9.47E+05 2u: 1.17E+03 ir: 6.96E-07 iu: 7.39E+02 rsn:   0
  3 2r: 5.00E-08 2x: 9.47E+05 2u: 3.87E+02 ir: 3.80E-08 iu: 2.29E+02 rsn:   0
  4 2r: 1.53E-10 2x: 9.47E+05 2u: 2.07E+01 ir: 1.01E-10 iu: 1.00E+01 rsn:   0
  5 2r: 1.35E-15 2x: 9.47E+05 2u: 5.79E-02 ir: 8.84E-16 iu: 3.21E-02 rsn: rtol
 Step     37 Time=  3.00000E+00 Dt=  2.50000E-01 [hour] snes_conv_reason:    3
  newton =   5 [     163] linear =     5 [       163] cuts =  0 [   0]
  --> max chng: dpmx=   2.9504E+03

== RICHARDS FLOW ===============================================================
  0 2r: 2.53E-06 2x: 0.00E+00 2u: 0.00E+00 ir: 1.23E-06 iu: 0.00E+00 rsn:   0
  1 2r: 2.71E-06 2x: 9.49E+05 2u: 5.72E+03 ir: 1.70E-06 iu: 3.14E+03 rsn:   0
  2 2r: 6.17E-07 2x: 9.48E+05 2u: 9.94E+02 ir: 3.70E-07 iu: 6.05E+02 rsn:   0
  3 2r: 3.27E-08 2x: 9.48E+05 2u: 2.25E+02 ir: 2.28E-08 iu: 1.46E+02 rsn:   0
  4 2r: 6.75E-11 2x: 9.48E+05 2u: 7.75E+00 ir: 5.41E-11 iu: 4.86E+00 rsn:   0
  5 2r: 3.42E-16 2x: 9.48E+05 2u: 1.85E-02 ir: 2.63E-16 iu: 1.11E-02 rsn: rtol
 Step     38 Time=  3.25000E+00 Dt=  2.50000E-01 [hour] snes_conv_reason:    3
  newton =   5 [     168] linear =     5 [       168] cuts =  0 [   0]
  --> max chng: dpmx=   2.6317E+03

== RICHARDS FLOW ===============================================================
  0 2r: 2.45E-06 2x: 0.00E+00 2u: 0.00E+00 ir: 1.14E-06 iu: 0.00E+00 rsn:   0
  1 2r: 2.21E-06 2x: 9.50E+05 2u: 5.45E+03 ir: 1.49E-06 iu: 3.01E+03 rsn:   0
  2 2r: 7.00E-07 2x: 9.50E+05 2u: 9.04E+02 ir: 3.96E-07 iu: 5.01E+02 rsn:   0
  3 2r: 5.81E-08 2x: 9.50E+05 2u: 1.67E+02 ir: 4.01E-08 iu: 9.12E+01 rsn:   0
  4 2r: 9.91E-10 2x: 9.50E+05 2u: 3.67E+00 ir: 7.01E-10 iu: 2.07E+00 rsn:   0
  5 2r: 2.79E-13 2x: 9.50E+05 2u: 1.27E-02 ir: 1.98E-13 iu: 3.89E-03 rsn:   0
  6 2r: 3.42E-18 2x: 9.50E+05 2u: 3.51E-06 ir: 1.25E-18 iu: 1.09E-06 rsn: rtol
 Step     39 Time=  3.50000E+00 Dt=  2.50000E-01 [hour] snes_conv_reason:    3
  newton =   6 [     174] linear =     6 [       174] cuts =  0 [   0]
  --> max chng: dpmx=   2.4548E+03

== RICHARDS FLOW ===============================================================
  0 2r: 2.40E-06 2x: 0.00E+00 2u: 0.00E+00 ir: 1.11E-06 iu: 0.00E+00 rsn:   0
  1 2r: 2.00E-06 2x: 9.52E+05 2u: 5.31E+03 ir: 1.21E-06 iu: 2.77E+03 rsn:   0
  2 2r: 4.72E-07 2x: 9.51E+05 2u: 8.60E+02 ir: 2.18E-07 iu: 5.02E+02 rsn:   0
  3 2r: 6.34E-08 2x: 9.51E+05 2u: 1.43E+02 ir: 4.40E-08 iu: 9.15E+01 rsn:   0
  4 2r: 5.69E-09 2x: 9.51E+05 2u: 2.99E+00 ir: 4.03E-09 iu: 1.74E+00 rsn:   0
  5 2r: 3.87E-11 2x: 9.51E+05 2u: 4.78E-02 ir: 2.74E-11 iu: 1.52E-02 rsn:   0
  6 2r: 1.76E-15 2x: 9.51E+05 2u: 3.28E-04 ir: 1.25E-15 iu: 1.05E-04 rsn: rtol
 Step     40 Time=  3.75000E+00 Dt=  2.50000E-01 [hour] snes_conv_reason:    3
  newton =   6 [     180] linear =     6 [       180] cuts =  0 [   0]
  --> max chng: dpmx=   2.4348E+03

== RICHARDS FLOW ===============================================================
  0 2r: 2.36E-06 2x: 0.00E+00 2u: 0.00E+00 ir: 1.07E-06 iu: 0.00E+00 rsn:   0
  1 2r: 1.96E-06 2x: 9.53E+05 2u: 5.24E+03 ir: 1.20E-06 iu: 2.84E+03 rsn:   0
  2 2r: 3.19E-07 2x: 9.53E+05 2u: 8.37E+02 ir: 2.38E-07 iu: 4.61E+02 rsn:   0
  3 2r: 7.56E-09 2x: 9.53E+05 2u: 1.32E+02 ir: 6.87E-09 iu: 7.00E+01 rsn:   0
  4 2r: 4.37E-12 2x: 9.53E+05 2u: 2.15E+00 ir: 3.64E-12 iu: 1.30E+00 rsn:   0
  5 2r: 4.90E-18 2x: 9.53E+05 2u: 7.53E-04 ir: 1.86E-18 iu: 5.31E-04 rsn: rtol
 Step     41 Time=  4.00000E+00 Dt=  2.50000E-01 [hour] snes_conv_reason:    3
  newton =   5 [     185] linear =     5 [       185] cuts =  0 [   0]
  --> max chng: dpmx=   2.3379E+03

== RICHARDS FLOW ===============================================================
  0 2r: 2.34E-06 2x: 0.00E+00 2u: 0.00E+00 ir: 1.07E-06 iu: 0.00E+00 rsn:   0
  1 2r: 1.71E-06 2x: 9.55E+05 2u: 5.17E+03 ir: 1.07E-06 iu: 2.69E+03 rsn:   0
  2 2r: 3.01E-07 2x: 9.54E+05 2u: 8.15E+02 ir: 1.72E-07 iu: 4.73E+02 rsn:   0
  3 2r: 8.79E-09 2x: 9.54E+05 2u: 1.22E+02 ir: 6.16E-09 iu: 7.89E+01 rsn:   0
  4 2r: 4.95E-12 2x: 9.54E+05 2u: 2.11E+00 ir: 3.93E-12 iu: 1.32E+00 rsn:   0
  5 2r: 4.50E-18 2x: 9.54E+05 2u: 1.34E-03 ir: 1.88E-18 iu: 8.06E-04 rsn: rtol
 Step     42 Time=  4.25000E+00 Dt=  2.50000E-01 [hour] snes_conv_reason:    3
  newton =   5 [     190] linear =     5 [       190] cuts =  0 [   0]
  --> max chng: dpmx=   2.3717E+03

== RICHARDS FLOW ===============================================================
  0 2r: 2.32E-06 2x: 0.00E+00 2u: 0.00E+00 ir: 1.04E-06 iu: 0.00E+00 rsn:   0
  1 2r: 1.71E-06 2x: 9.56E+05 2u: 5.14E+03 ir: 1.10E-06 iu: 2.77E+03 rsn:   0
  2 2r: 5.49E-07 2x: 9.56E+05 2u: 8.03E+02 ir: 3.35E-07 iu: 4.39E+02 rsn:   0
  3 2r: 6.16E-08 2x: 9.56E+05 2u: 1.18E+02 ir: 4.34E-08 iu: 6.09E+01 rsn:   0
  4 2r: 1.91E-09 2x: 9.56E+05 2u: 1.89E+00 ir: 1.35E-09 iu: 9.72E-01 rsn:   0
  5 2r: 1.66E-12 2x: 9.56E+05 2u: 2.18E-02 ir: 1.18E-12 iu: 7.10E-03 rsn:   0
  6 2r: 5.15E-18 2x: 9.56E+05 2u: 1.90E-05 ir: 2.93E-18 iu: 6.20E-06 rsn: rtol
 Step     43 Time=  4.50000E+00 Dt=  2.50000E-01 [hour] snes_conv_reason:    3
  newton =   6 [     196] linear =     6 [       196] cuts =  0 [   0]
  --> max chng: dpmx=   2.2954E+03

== RICHARDS FLOW ===============================================================
  0 2r: 2.31E-06 2x: 0.00E+00 2u: 0.00E+00 ir: 1.05E-06 iu: 0.00E+00 rsn:   0
  1 2r: 1.69E-06 2x: 9.58E+05 2u: 5.11E+03 ir: 1.02E-06 iu: 2.65E+03 rsn:   0
  2 2r: 3.03E-07 2x: 9.57E+05 2u: 7.95E+02 ir: 1.54E-07 iu: 4.61E+02 rsn:   0
  3 2r: 4.65E-08 2x: 9.57E+05 2u: 1.14E+02 ir: 3.25E-08 iu: 7.28E+01 rsn:   0
  4 2r: 1.37E-07 2x: 9.57E+05 2u: 2.15E+00 ir: 9.70E-08 iu: 1.08E+00 rsn:   0
  5 2r: 4.88E-08 2x: 9.57E+05 2u: 1.19E+00 ir: 3.45E-08 iu: 3.89E-01 rsn:   0
  6 2r: 1.37E-07 2x: 9.57E+05 2u: 1.19E+00 ir: 9.70E-08 iu: 3.89E-01 rsn:   0
  7 2r: 4.88E-08 2x: 9.57E+05 2u: 1.19E+00 ir: 3.45E-08 iu: 3.89E-01 rsn:   0
  8 2r: 1.37E-07 2x: 9.57E+05 2u: 1.19E+00 ir: 9.70E-08 iu: 3.89E-01 rsn:   0
  9 2r: 4.88E-08 2x: 9.57E+05 2u: 1.19E+00 ir: 3.45E-08 iu: 3.89E-01 rsn:   0
 10 2r: 1.37E-07 2x: 9.57E+05 2u: 1.19E+00 ir: 9.70E-08 iu: 3.89E-01 rsn:   0
 11 2r: 4.88E-08 2x: 9.57E+05 2u: 1.19E+00 ir: 3.45E-08 iu: 3.89E-01 rsn:   0
 12 2r: 1.37E-07 2x: 9.57E+05 2u: 1.19E+00 ir: 9.70E-08 iu: 3.89E-01 rsn:   0
 13 2r: 4.88E-08 2x: 9.57E+05 2u: 1.19E+00 ir: 3.45E-08 iu: 3.89E-01 rsn:   0
 14 2r: 1.37E-07 2x: 9.57E+05 2u: 1.19E+00 ir: 9.70E-08 iu: 3.89E-01 rsn:   0
 15 2r: 4.88E-08 2x: 9.57E+05 2u: 1.19E+00 ir: 3.45E-08 iu: 3.89E-01 rsn:   0
 16 2r: 1.37E-07 2x: 9.57E+05 2u: 1.19E+00 ir: 9.70E-08 iu: 3.89E-01 rsn:   0
 17 2r: 4.88E-08 2x: 9.57E+05 2u: 1.19E+00 ir: 3.45E-08 iu: 3.89E-01 rsn:   0
 18 2r: 1.37E-07 2x: 9.57E+05 2u: 1.19E+00 ir: 9.70E-08 iu: 3.89E-01 rsn:   0
 19 2r: 4.88E-08 2x: 9.57E+05 2u: 1.19E+00 ir: 3.45E-08 iu: 3.89E-01 rsn:   0
 20 2r: 1.37E-07 2x: 9.57E+05 2u: 1.19E+00 ir: 9.70E-08 iu: 3.89E-01 rsn:   0
  0 2r: 2.31E-06 2x: 0.00E+00 2u: 0.00E+00 ir: 1.05E-06 iu: 0.00E+00 rsn:   0
  1 2r: 4.31E-07 2x: 9.57E+05 2u: 2.32E+03 ir: 2.24E-07 iu: 1.22E+03 rsn:   0
  2 2r: 1.35E-08 2x: 9.57E+05 2u: 1.75E+02 ir: 7.81E-09 iu: 1.02E+02 rsn:   0
  3 2r: 1.89E-11 2x: 9.57E+05 2u: 3.49E+00 ir: 1.25E-11 iu: 2.02E+00 rsn:   0
  4 2r: 6.37E-17 2x: 9.57E+05 2u: 1.46E-03 ir: 4.49E-17 iu: 1.02E-03 rsn: rtol
 Step     44 Time=  4.62500E+00 Dt=  1.25000E-01 [hour] snes_conv_reason:    3
  newton =  24 [     220] linear =    24 [       220] cuts =  1 [   1]
  --> max chng: dpmx=   1.1130E+03

== RICHARDS FLOW ===============================================================
  0 2r: 2.33E-06 2x: 0.00E+00 2u: 0.00E+00 ir: 1.07E-06 iu: 0.00E+00 rsn:   0
  1 2r: 3.76E-07 2x: 9.57E+05 2u: 2.40E+03 ir: 2.37E-07 iu: 1.30E+03 rsn:   0
  2 2r: 1.18E-08 2x: 9.57E+05 2u: 1.91E+02 ir: 9.25E-09 iu: 1.15E+02 rsn:   0
  3 2r: 1.05E-11 2x: 9.57E+05 2u: 4.27E+00 ir: 9.18E-12 iu: 2.72E+00 rsn:   0
  4 2r: 7.70E-18 2x: 9.57E+05 2u: 2.12E-03 ir: 5.29E-18 iu: 1.69E-03 rsn: rtol
 Step     45 Time=  4.75000E+00 Dt=  1.25000E-01 [hour] snes_conv_reason:    3
  newton =   4 [     224] linear =     4 [       224] cuts =  0 [   1]
  --> max chng: dpmx=   1.1944E+03

== RICHARDS FLOW ===============================================================
  0 2r: 2.34E-06 2x: 0.00E+00 2u: 0.00E+00 ir: 1.09E-06 iu: 0.00E+00 rsn:   0
  1 2r: 4.38E-07 2x: 9.58E+05 2u: 2.46E+03 ir: 2.45E-07 iu: 1.35E+03 rsn:   0
  2 2r: 3.23E-07 2x: 9.58E+05 2u: 2.06E+02 ir: 2.28E-07 iu: 1.30E+02 rsn:   0
  3 2r: 6.91E-08 2x: 9.58E+05 2u: 6.35E+00 ir: 4.89E-08 iu: 3.44E+00 rsn:   0
  4 2r: 6.90E-09 2x: 9.58E+05 2u: 4.63E-01 ir: 4.88E-09 iu: 1.64E-01 rsn:   0
  5 2r: 5.54E-11 2x: 9.58E+05 2u: 5.59E-02 ir: 3.92E-11 iu: 1.98E-02 rsn:   0
  6 2r: 3.50E-15 2x: 9.58E+05 2u: 4.56E-04 ir: 2.48E-15 iu: 1.61E-04 rsn: rtol
 Step     46 Time=  4.87500E+00 Dt=  1.25000E-01 [hour] snes_conv_reason:    3
  newton =   6 [     230] linear =     6 [       230] cuts =  0 [   1]
  --> max chng: dpmx=   1.2504E+03

== RICHARDS FLOW ===============================================================
  0 2r: 2.36E-06 2x: 0.00E+00 2u: 0.00E+00 ir: 1.10E-06 iu: 0.00E+00 rsn:   0
  1 2r: 5.49E-07 2x: 9.59E+05 2u: 2.51E+03 ir: 2.93E-07 iu: 1.34E+03 rsn:   0
  2 2r: 2.78E-08 2x: 9.59E+05 2u: 2.18E+02 ir: 1.62E-08 iu: 1.43E+02 rsn:   0
  3 2r: 1.76E-10 2x: 9.59E+05 2u: 5.54E+00 ir: 1.24E-10 iu: 3.73E+00 rsn:   0
  4 2r: 9.67E-15 2x: 9.59E+05 2u: 5.83E-03 ir: 6.84E-15 iu: 3.67E-03 rsn: rtol
 Step     47 Time=  5.00000E+00 Dt=  1.25000E-01 [hour] snes_conv_reason:    3
  newton =   4 [     234] linear =     4 [       234] cuts =  0 [   1]
  --> max chng: dpmx=   1.2621E+03

== RICHARDS FLOW ===============================================================
  0 2r: 2.37E-06 2x: 0.00E+00 2u: 0.00E+00 ir: 1.10E-06 iu: 0.00E+00 rsn:   0
  1 2r: 4.45E-07 2x: 9.60E+05 2u: 2.54E+03 ir: 3.02E-07 iu: 1.42E+03 rsn:   0
  2 2r: 1.73E-08 2x: 9.60E+05 2u: 2.25E+02 ir: 1.16E-08 iu: 1.48E+02 rsn:   0
  3 2r: 1.64E-11 2x: 9.60E+05 2u: 6.34E+00 ir: 9.91E-12 iu: 3.60E+00 rsn:   0
  4 2r: 1.66E-17 2x: 9.60E+05 2u: 5.98E-03 ir: 1.21E-17 iu: 3.59E-03 rsn: rtol
 Step     48 Time=  5.12500E+00 Dt=  1.25000E-01 [hour] snes_conv_reason:    3
  newton =   4 [     238] linear =     4 [       238] cuts =  0 [   1]
  --> max chng: dpmx=   1.2716E+03

== RICHARDS FLOW ===============================================================
  0 2r: 2.38E-06 2x: 0.00E+00 2u: 0.00E+00 ir: 1.13E-06 iu: 0.00E+00 rsn:   0
  1 2r: 4.67E-07 2x: 9.60E+05 2u: 2.56E+03 ir: 3.14E-07 iu: 1.47E+03 rsn:   0
  2 2r: 2.50E-07 2x: 9.60E+05 2u: 2.31E+02 ir: 1.76E-07 iu: 1.40E+02 rsn:   0
  3 2r: 8.29E-08 2x: 9.60E+05 2u: 7.40E+00 ir: 5.87E-08 iu: 4.35E+00 rsn:   0
  4 2r: 2.37E-08 2x: 9.60E+05 2u: 2.98E-01 ir: 1.68E-08 iu: 1.02E-01 rsn:   0
  5 2r: 1.30E-09 2x: 9.60E+05 2u: 1.47E-01 ir: 9.16E-10 iu: 5.04E-02 rsn:   0
  6 2r: 3.49E-12 2x: 9.60E+05 2u: 8.96E-03 ir: 2.47E-12 iu: 3.07E-03 rsn: stol
 Step     49 Time=  5.25000E+00 Dt=  1.25000E-01 [hour] snes_conv_reason:    4
  newton =   6 [     244] linear =     6 [       244] cuts =  0 [   1]
  --> max chng: dpmx=   1.3249E+03

== RICHARDS FLOW ===============================================================
  0 2r: 2.38E-06 2x: 0.00E+00 2u: 0.00E+00 ir: 1.14E-06 iu: 0.00E+00 rsn:   0
  1 2r: 6.01E-07 2x: 9.61E+05 2u: 2.58E+03 ir: 3.23E-07 iu: 1.46E+03 rsn:   0
  2 2r: 4.17E-08 2x: 9.61E+05 2u: 2.36E+02 ir: 2.65E-08 iu: 1.53E+02 rsn:   0
  3 2r: 6.15E-10 2x: 9.61E+05 2u: 6.70E+00 ir: 4.34E-10 iu: 4.57E+00 rsn:   0
  4 2r: 1.52E-13 2x: 9.61E+05 2u: 9.84E-03 ir: 1.08E-13 iu: 4.89E-03 rsn:   0
  5 2r: 4.68E-18 2x: 9.61E+05 2u: 1.81E-06 ir: 1.67E-18 iu: 6.09E-07 rsn: rtol
 Step     50 Time=  5.37500E+00 Dt=  1.25000E-01 [hour] snes_conv_reason:    3
  newton =   5 [     249] linear =     5 [       249] cuts =  0 [   1]
  --> max chng: dpmx=   1.3404E+03

== RICHARDS FLOW ===============================================================
  0 2r: 2.38E-06 2x: 0.00E+00 2u: 0.00E+00 ir: 1.14E-06 iu: 0.00E+00 rsn:   0
  1 2r: 9.09E-08 2x: 9.61E+05 2u: 7.76E+02 ir: 5.61E-08 iu: 4.33E+02 rsn:   0
  2 2r: 3.27E-09 2x: 9.61E+05 2u: 2.17E+01 ir: 2.31E-09 iu: 1.49E+01 rsn:   0
  3 2r: 1.31E-11 2x: 9.61E+05 2u: 4.70E-02 ir: 9.26E-12 iu: 2.48E-02 rsn:   0
  4 2r: 2.16E-16 2x: 9.61E+05 2u: 1.11E-04 ir: 1.53E-16 iu: 3.82E-05 rsn: rtol
 Step     51 Time=  5.41625E+00 Dt=  4.12500E-02 [hour] snes_conv_reason:    3
  newton =   4 [     253] linear =     4 [       253] cuts =  0 [   1]
  --> max chng: dpmx=   4.1781E+02

== RICHARDS FLOW ===============================================================
  0 2r: 2.39E-06 2x: 0.00E+00 2u: 0.00E+00 ir: 1.16E-06 iu: 0.00E+00 rsn:   0
  1 2r: 2.74E-07 2x: 9.62E+05 2u: 1.68E+03 ir: 1.49E-07 iu: 9.36E+02 rsn:   0
  2 2r: 3.72E-09 2x: 9.62E+05 2u: 1.03E+02 ir: 2.74E-09 iu: 7.09E+01 rsn:   0
  3 2r: 9.48E-13 2x: 9.62E+05 2u: 1.05E+00 ir: 7.28E-13 iu: 8.23E-01 rsn:   0
  4 2r: 4.20E-18 2x: 9.62E+05 2u: 2.06E-04 ir: 1.39E-18 iu: 1.55E-04 rsn: rtol
 Step     52 Time=  5.50000E+00 Dt=  8.37500E-02 [hour] snes_conv_reason:    3
  newton =   4 [     257] linear =     4 [       257] cuts =  0 [   1]
  --> max chng: dpmx=   8.9079E+02

== RICHARDS FLOW ===============================================================
  0 2r: 2.40E-06 2x: 0.00E+00 2u: 0.00E+00 ir: 1.15E-06 iu: 0.00E+00 rsn:   0
  1 2r: 2.51E-07 2x: 9.62E+05 2u: 1.67E+03 ir: 1.67E-07 iu: 9.72E+02 rsn:   0
  2 2r: 1.55E-08 2x: 9.62E+05 2u: 1.02E+02 ir: 1.07E-08 iu: 6.89E+01 rsn:   0
  3 2r: 2.00E-10 2x: 9.62E+05 2u: 1.16E+00 ir: 1.41E-10 iu: 6.89E-01 rsn:   0
  4 2r: 3.33E-14 2x: 9.62E+05 2u: 1.97E-03 ir: 2.35E-14 iu: 6.57E-04 rsn: stol
 Step     53 Time=  5.58250E+00 Dt=  8.25000E-02 [hour] snes_conv_reason:    4
  newton =   4 [     261] linear =     4 [       261] cuts =  0 [   1]
  --> max chng: dpmx=   9.0295E+02

== RICHARDS FLOW ===============================================================
  0 2r: 2.41E-06 2x: 0.00E+00 2u: 0.00E+00 ir: 1.17E-06 iu: 0.00E+00 rsn:   0
  1 2r: 1.02E-06 2x: 9.63E+05 2u: 3.70E+03 ir: 6.75E-07 iu: 2.19E+03 rsn:   0
  2 2r: 4.81E-07 2x: 9.63E+05 2u: 4.81E+02 ir: 3.35E-07 iu: 2.98E+02 rsn:   0
  3 2r: 6.53E-08 2x: 9.63E+05 2u: 3.70E+01 ir: 4.62E-08 iu: 2.44E+01 rsn:   0
  4 2r: 2.31E-09 2x: 9.63E+05 2u: 7.43E-01 ir: 1.63E-09 iu: 2.35E-01 rsn:   0
  5 2r: 2.59E-12 2x: 9.63E+05 2u: 2.77E-02 ir: 1.83E-12 iu: 8.89E-03 rsn:   0
  6 2r: 3.88E-18 2x: 9.63E+05 2u: 3.11E-05 ir: 1.30E-18 iu: 9.97E-06 rsn: rtol
 Step     54 Time=  5.75000E+00 Dt=  1.67500E-01 [hour] snes_conv_reason:    3
  newton =   6 [     267] linear =     6 [       267] cuts =  0 [   1]
  --> max chng: dpmx=   1.9060E+03

== RICHARDS FLOW ===============================================================
  0 2r: 2.39E-06 2x: 0.00E+00 2u: 0.00E+00 ir: 1.16E-06 iu: 0.00E+00 rsn:   0
  1 2r: 8.75E-07 2x: 9.64E+05 2u: 3.53E+03 ir: 5.87E-07 iu: 2.02E+03 rsn:   0
  2 2r: 7.77E-08 2x: 9.64E+05 2u: 4.37E+02 ir: 6.07E-08 iu: 2.77E+02 rsn:   0
  3 2r: 5.74E-10 2x: 9.64E+05 2u: 2.82E+01 ir: 4.22E-10 iu: 1.88E+01 rsn:   0
  4 2r: 2.45E-14 2x: 9.64E+05 2u: 1.11E-01 ir: 1.30E-14 iu: 8.42E-02 rsn:   0
  5 2r: 7.08E-18 2x: 9.64E+05 2u: 3.84E-06 ir: 4.46E-18 iu: 2.44E-06 rsn: rtol
 Step     55 Time=  5.91500E+00 Dt=  1.65000E-01 [hour] snes_conv_reason:    3
  newton =   5 [     272] linear =     5 [       272] cuts =  0 [   1]
  --> max chng: dpmx=   1.7937E+03

== RICHARDS FLOW ===============================================================
  0 2r: 2.37E-06 2x: 0.00E+00 2u: 0.00E+00 ir: 1.15E-06 iu: 0.00E+00 rsn:   0
  1 2r: 1.28E-07 2x: 9.64E+05 2u: 1.03E+03 ir: 8.11E-08 iu: 5.61E+02 rsn:   0
  2 2r: 5.05E-09 2x: 9.64E+05 2u: 3.77E+01 ir: 3.56E-09 iu: 2.62E+01 rsn:   0
  3 2r: 2.72E-11 2x: 9.64E+05 2u: 1.36E-01 ir: 1.92E-11 iu: 9.00E-02 rsn:   0
  4 2r: 7.93E-16 2x: 9.64E+05 2u: 2.59E-04 ir: 5.61E-16 iu: 8.41E-05 rsn: rtol
 Step     56 Time=  5.96945E+00 Dt=  5.44500E-02 [hour] snes_conv_reason:    3
  newton =   4 [     276] linear =     4 [       276] cuts =  0 [   1]
  --> max chng: dpmx=   5.3495E+02

== RICHARDS FLOW ===============================================================
  0 2r: 2.38E-06 2x: 0.00E+00 2u: 0.00E+00 ir: 1.14E-06 iu: 0.00E+00 rsn:   0
  1 2r: 8.00E-08 2x: 9.65E+05 2u: 5.66E+02 ir: 4.19E-08 iu: 3.04E+02 rsn:   0
  2 2r: 1.68E-07 2x: 9.65E+05 2u: 1.19E+01 ir: 1.19E-07 iu: 8.15E+00 rsn:   0
  3 2r: 6.44E-08 2x: 9.65E+05 2u: 1.69E+00 ir: 4.56E-08 iu: 5.52E-01 rsn:   0
  4 2r: 1.68E-07 2x: 9.65E+05 2u: 1.69E+00 ir: 1.19E-07 iu: 5.51E-01 rsn:   0
  5 2r: 6.44E-08 2x: 9.65E+05 2u: 1.69E+00 ir: 4.56E-08 iu: 5.51E-01 rsn:   0
  6 2r: 1.68E-07 2x: 9.65E+05 2u: 1.69E+00 ir: 1.19E-07 iu: 5.51E-01 rsn:   0
  7 2r: 6.44E-08 2x: 9.65E+05 2u: 1.69E+00 ir: 4.56E-08 iu: 5.51E-01 rsn:   0
  8 2r: 1.68E-07 2x: 9.65E+05 2u: 1.69E+00 ir: 1.19E-07 iu: 5.51E-01 rsn:   0
  9 2r: 6.44E-08 2x: 9.65E+05 2u: 1.69E+00 ir: 4.56E-08 iu: 5.51E-01 rsn:   0
 10 2r: 1.68E-07 2x: 9.65E+05 2u: 1.69E+00 ir: 1.19E-07 iu: 5.51E-01 rsn:   0
 11 2r: 6.44E-08 2x: 9.65E+05 2u: 1.69E+00 ir: 4.56E-08 iu: 5.51E-01 rsn:   0
 12 2r: 1.68E-07 2x: 9.65E+05 2u: 1.69E+00 ir: 1.19E-07 iu: 5.51E-01 rsn:   0
 13 2r: 6.44E-08 2x: 9.65E+05 2u: 1.69E+00 ir: 4.56E-08 iu: 5.51E-01 rsn:   0
 14 2r: 1.68E-07 2x: 9.65E+05 2u: 1.69E+00 ir: 1.19E-07 iu: 5.51E-01 rsn:   0
 15 2r: 6.44E-08 2x: 9.65E+05 2u: 1.69E+00 ir: 4.56E-08 iu: 5.51E-01 rsn:   0
 16 2r: 1.68E-07 2x: 9.65E+05 2u: 1.69E+00 ir: 1.19E-07 iu: 5.51E-01 rsn:   0
 17 2r: 6.44E-08 2x: 9.65E+05 2u: 1.69E+00 ir: 4.56E-08 iu: 5.51E-01 rsn:   0
 18 2r: 1.68E-07 2x: 9.65E+05 2u: 1.69E+00 ir: 1.19E-07 iu: 5.51E-01 rsn:   0
 19 2r: 6.44E-08 2x: 9.65E+05 2u: 1.69E+00 ir: 4.56E-08 iu: 5.51E-01 rsn:   0
 20 2r: 1.68E-07 2x: 9.65E+05 2u: 1.69E+00 ir: 1.19E-07 iu: 5.51E-01 rsn:   0
  0 2r: 2.38E-06 2x: 0.00E+00 2u: 0.00E+00 ir: 1.14E-06 iu: 0.00E+00 rsn:   0
  1 2r: 2.67E-08 2x: 9.64E+05 2u: 2.76E+02 ir: 1.60E-08 iu: 1.46E+02 rsn:   0
  2 2r: 1.84E-10 2x: 9.64E+05 2u: 2.89E+00 ir: 1.30E-10 iu: 1.98E+00 rsn:   0
  3 2r: 6.64E-14 2x: 9.64E+05 2u: 1.49E-03 ir: 4.70E-14 iu: 4.60E-04 rsn: stol
 Step     57 Time=  5.98473E+00 Dt=  1.52750E-02 [hour] snes_conv_reason:    4
  newton =  23 [     299] linear =    23 [       299] cuts =  1 [   2]
  --> max chng: dpmx=   1.4422E+02

== RICHARDS FLOW ===============================================================
  0 2r: 2.38E-06 2x: 0.00E+00 2u: 0.00E+00 ir: 1.14E-06 iu: 0.00E+00 rsn:   0
  1 2r: 3.32E-08 2x: 9.65E+05 2u: 2.78E+02 ir: 1.67E-08 iu: 1.50E+02 rsn:   0
  2 2r: 3.39E-09 2x: 9.65E+05 2u: 2.95E+00 ir: 2.40E-09 iu: 1.99E+00 rsn:   0
  3 2r: 6.45E-11 2x: 9.65E+05 2u: 1.59E-02 ir: 4.56E-11 iu: 5.18E-03 rsn:   0
  4 2r: 2.27E-14 2x: 9.65E+05 2u: 3.13E-04 ir: 1.60E-14 iu: 1.02E-04 rsn: rtol
 Step     58 Time=  6.00000E+00 Dt=  1.52750E-02 [hour] snes_conv_reason:    3
  newton =   4 [     303] linear =     4 [       303] cuts =  0 [   2]
  --> max chng: dpmx=   1.4827E+02

== RICHARDS FLOW ===============================================================
  0 2r: 2.39E-06 2x: 0.00E+00 2u: 0.00E+00 ir: 1.13E-06 iu: 0.00E+00 rsn:   0
  1 2r: 2.71E-08 2x: 9.65E+05 2u: 2.80E+02 ir: 1.72E-08 iu: 1.54E+02 rsn:   0
  2 2r: 5.08E-12 2x: 9.65E+05 2u: 3.01E+00 ir: 4.46E-12 iu: 1.97E+00 rsn:   0
  3 2r: 4.39E-18 2x: 9.65E+05 2u: 5.38E-04 ir: 1.54E-18 iu: 4.51E-04 rsn: rtol
 Step     59 Time=  6.01527E+00 Dt=  1.52750E-02 [hour] snes_conv_reason:    3
  newton =   3 [     306] linear =     3 [       306] cuts =  0 [   2]
  --> max chng: dpmx=   1.5269E+02

== RICHARDS FLOW ===============================================================
  0 2r: 2.39E-06 2x: 0.00E+00 2u: 0.00E+00 ir: 1.14E-06 iu: 0.00E+00 rsn:   0
  1 2r: 2.62E-08 2x: 9.65E+05 2u: 2.82E+02 ir: 1.76E-08 iu: 1.58E+02 rsn:   0
  2 2r: 5.17E-12 2x: 9.65E+05 2u: 3.06E+00 ir: 4.55E-12 iu: 1.95E+00 rsn:   0
  3 2r: 3.77E-18 2x: 9.65E+05 2u: 5.62E-04 ir: 1.22E-18 iu: 4.44E-04 rsn: rtol
 Step     60 Time=  6.03055E+00 Dt=  1.52750E-02 [hour] snes_conv_reason:    3
  newton =   3 [     309] linear =     3 [       309] cuts =  0 [   2]
  --> max chng: dpmx=   1.5630E+02

== RICHARDS FLOW ===============================================================
  0 2r: 2.40E-06 2x: 0.00E+00 2u: 0.00E+00 ir: 1.16E-06 iu: 0.00E+00 rsn:   0
  1 2r: 2.65E-08 2x: 9.65E+05 2u: 2.83E+02 ir: 1.78E-08 iu: 1.61E+02 rsn:   0
  2 2r: 5.34E-12 2x: 9.65E+05 2u: 3.11E+00 ir: 4.54E-12 iu: 2.07E+00 rsn:   0
  3 2r: 6.74E-18 2x: 9.65E+05 2u: 5.91E-04 ir: 2.90E-18 iu: 4.28E-04 rsn: rtol
 Step     61 Time=  6.04582E+00 Dt=  1.52750E-02 [hour] snes_conv_reason:    3
  newton =   3 [     312] linear =     3 [       312] cuts =  0 [   2]
  --> max chng: dpmx=   1.5905E+02

== RICHARDS FLOW ===============================================================
  0 2r: 2.40E-06 2x: 0.00E+00 2u: 0.00E+00 ir: 1.17E-06 iu: 0.00E+00 rsn:   0
  1 2r: 2.68E-08 2x: 9.65E+05 2u: 2.85E+02 ir: 1.79E-08 iu: 1.63E+02 rsn:   0
  2 2r: 5.56E-12 2x: 9.65E+05 2u: 3.16E+00 ir: 4.43E-12 iu: 2.19E+00 rsn:   0
  3 2r: 5.12E-18 2x: 9.65E+05 2u: 6.22E-04 ir: 1.68E-18 iu: 4.48E-04 rsn: rtol
 Step     62 Time=  6.06110E+00 Dt=  1.52750E-02 [hour] snes_conv_reason:    3
  newton =   3 [     315] linear =     3 [       315] cuts =  0 [   2]
  --> max chng: dpmx=   1.6094E+02

== RICHARDS FLOW ===============================================================
  0 2r: 2.40E-06 2x: 0.00E+00 2u: 0.00E+00 ir: 1.18E-06 iu: 0.00E+00 rsn:   0
  1 2r: 6.08E-08 2x: 9.65E+05 2u: 5.87E+02 ir: 4.07E-08 iu: 3.37E+02 rsn:   0
  2 2r: 7.95E-11 2x: 9.65E+05 2u: 1.31E+01 ir: 4.83E-11 iu: 9.46E+00 rsn:   0
  3 2r: 7.45E-16 2x: 9.65E+05 2u: 1.31E-02 ir: 5.24E-16 iu: 9.98E-03 rsn: rtol
 Step     63 Time=  6.09165E+00 Dt=  3.05500E-02 [hour] snes_conv_reason:    3
  newton =   3 [     318] linear =     3 [       318] cuts =  0 [   2]
  --> max chng: dpmx=   3.2795E+02

== RICHARDS FLOW ===============================================================
  0 2r: 2.41E-06 2x: 0.00E+00 2u: 0.00E+00 ir: 1.18E-06 iu: 0.00E+00 rsn:   0
  1 2r: 1.85E-07 2x: 9.65E+05 2u: 1.23E+03 ir: 9.99E-08 iu: 6.86E+02 rsn:   0
  2 2r: 5.34E-08 2x: 9.65E+05 2u: 5.73E+01 ir: 3.78E-08 iu: 4.13E+01 rsn:   0
  3 2r: 6.47E-09 2x: 9.65E+05 2u: 4.49E-01 ir: 4.57E-09 iu: 2.50E-01 rsn:   0
  4 2r: 7.62E-11 2x: 9.65E+05 2u: 5.12E-02 ir: 5.39E-11 iu: 1.63E-02 rsn:   0
  5 2r: 1.03E-14 2x: 9.65E+05 2u: 6.18E-04 ir: 7.31E-15 iu: 1.97E-04 rsn: rtol
 Step     64 Time=  6.15275E+00 Dt=  6.11000E-02 [hour] snes_conv_reason:    3
  newton =   5 [     323] linear =     5 [       323] cuts =  0 [   2]
  --> max chng: dpmx=   6.5829E+02

== RICHARDS FLOW ===============================================================
  0 2r: 2.42E-06 2x: 0.00E+00 2u: 0.00E+00 ir: 1.16E-06 iu: 0.00E+00 rsn:   0
  1 2r: 5.87E-08 2x: 9.66E+05 2u: 3.87E+02 ir: 3.24E-08 iu: 2.21E+02 rsn:   0
  2 2r: 1.49E-07 2x: 9.66E+05 2u: 6.01E+00 ir: 1.06E-07 iu: 3.97E+00 rsn:   0
  3 2r: 5.36E-08 2x: 9.66E+05 2u: 1.44E+00 ir: 3.79E-08 iu: 4.62E-01 rsn:   0
  4 2r: 1.49E-07 2x: 9.66E+05 2u: 1.44E+00 ir: 1.06E-07 iu: 4.62E-01 rsn:   0
  5 2r: 5.36E-08 2x: 9.66E+05 2u: 1.44E+00 ir: 3.79E-08 iu: 4.62E-01 rsn:   0
  6 2r: 1.49E-07 2x: 9.66E+05 2u: 1.44E+00 ir: 1.06E-07 iu: 4.62E-01 rsn:   0
  7 2r: 5.36E-08 2x: 9.66E+05 2u: 1.44E+00 ir: 3.79E-08 iu: 4.62E-01 rsn:   0
  8 2r: 1.49E-07 2x: 9.66E+05 2u: 1.44E+00 ir: 1.06E-07 iu: 4.62E-01 rsn:   0
  9 2r: 5.36E-08 2x: 9.66E+05 2u: 1.44E+00 ir: 3.79E-08 iu: 4.62E-01 rsn:   0
 10 2r: 1.49E-07 2x: 9.66E+05 2u: 1.44E+00 ir: 1.06E-07 iu: 4.62E-01 rsn:   0
 11 2r: 5.36E-08 2x: 9.66E+05 2u: 1.44E+00 ir: 3.79E-08 iu: 4.62E-01 rsn:   0
 12 2r: 1.49E-07 2x: 9.66E+05 2u: 1.44E+00 ir: 1.06E-07 iu: 4.62E-01 rsn:   0
 13 2r: 5.36E-08 2x: 9.66E+05 2u: 1.44E+00 ir: 3.79E-08 iu: 4.62E-01 rsn:   0
 14 2r: 1.49E-07 2x: 9.66E+05 2u: 1.44E+00 ir: 1.06E-07 iu: 4.62E-01 rsn:   0
 15 2r: 5.36E-08 2x: 9.66E+05 2u: 1.44E+00 ir: 3.79E-08 iu: 4.62E-01 rsn:   0
 16 2r: 1.49E-07 2x: 9.66E+05 2u: 1.44E+00 ir: 1.06E-07 iu: 4.62E-01 rsn:   0
 17 2r: 5.36E-08 2x: 9.66E+05 2u: 1.44E+00 ir: 3.79E-08 iu: 4.62E-01 rsn:   0
 18 2r: 1.49E-07 2x: 9.66E+05 2u: 1.44E+00 ir: 1.06E-07 iu: 4.62E-01 rsn:   0
 19 2r: 5.36E-08 2x: 9.66E+05 2u: 1.44E+00 ir: 3.79E-08 iu: 4.62E-01 rsn:   0
 20 2r: 1.49E-07 2x: 9.66E+05 2u: 1.44E+00 ir: 1.06E-07 iu: 4.62E-01 rsn:   0
  0 2r: 2.42E-06 2x: 0.00E+00 2u: 0.00E+00 ir: 1.16E-06 iu: 0.00E+00 rsn:   0
  1 2r: 1.85E-08 2x: 9.65E+05 2u: 1.90E+02 ir: 1.20E-08 iu: 1.07E+02 rsn:   0
  2 2r: 9.61E-11 2x: 9.65E+05 2u: 1.45E+00 ir: 6.80E-11 iu: 9.75E-01 rsn:   0
  3 2r: 2.78E-14 2x: 9.65E+05 2u: 6.39E-04 ir: 1.97E-14 iu: 2.01E-04 rsn: stol
 Step     65 Time=  6.16283E+00 Dt=  1.00815E-02 [hour] snes_conv_reason:    4
  newton =  23 [     346] linear =    23 [       346] cuts =  1 [   3]
  --> max chng: dpmx=   1.0617E+02

== RICHARDS FLOW ===============================================================
  0 2r: 2.42E-06 2x: 0.00E+00 2u: 0.00E+00 ir: 1.17E-06 iu: 0.00E+00 rsn:   0
  1 2r: 2.07E-08 2x: 9.66E+05 2u: 1.91E+02 ir: 1.22E-08 iu: 1.09E+02 rsn:   0
  2 2r: 9.17E-10 2x: 9.66E+05 2u: 1.47E+00 ir: 6.48E-10 iu: 9.63E-01 rsn:   0
  3 2r: 5.81E-12 2x: 9.66E+05 2u: 4.00E-03 ir: 4.11E-12 iu: 1.28E-03 rsn: stol
 Step     66 Time=  6.17291E+00 Dt=  1.00815E-02 [hour] snes_conv_reason:    4
  newton =   3 [     349] linear =     3 [       349] cuts =  0 [   3]
  --> max chng: dpmx=   1.0814E+02

== RICHARDS FLOW ===============================================================
  0 2r: 2.42E-06 2x: 0.00E+00 2u: 0.00E+00 ir: 1.18E-06 iu: 0.00E+00 rsn:   0
  1 2r: 1.85E-08 2x: 9.66E+05 2u: 1.92E+02 ir: 1.22E-08 iu: 1.11E+02 rsn:   0
  2 2r: 3.01E-08 2x: 9.66E+05 2u: 1.49E+00 ir: 2.13E-08 iu: 9.59E-01 rsn:   0
  3 2r: 4.05E-09 2x: 9.66E+05 2u: 1.10E-01 ir: 2.87E-09 iu: 3.53E-02 rsn:   0
  4 2r: 3.01E-08 2x: 9.66E+05 2u: 1.10E-01 ir: 2.13E-08 iu: 3.53E-02 rsn:   0
  5 2r: 4.05E-09 2x: 9.66E+05 2u: 1.10E-01 ir: 2.87E-09 iu: 3.53E-02 rsn:   0
  6 2r: 3.01E-08 2x: 9.66E+05 2u: 1.10E-01 ir: 2.13E-08 iu: 3.53E-02 rsn:   0
  7 2r: 4.05E-09 2x: 9.66E+05 2u: 1.10E-01 ir: 2.87E-09 iu: 3.53E-02 rsn:   0
  8 2r: 3.01E-08 2x: 9.66E+05 2u: 1.10E-01 ir: 2.13E-08 iu: 3.53E-02 rsn:   0
  9 2r: 4.05E-09 2x: 9.66E+05 2u: 1.10E-01 ir: 2.87E-09 iu: 3.53E-02 rsn:   0
 10 2r: 3.01E-08 2x: 9.66E+05 2u: 1.10E-01 ir: 2.13E-08 iu: 3.53E-02 rsn:   0
 11 2r: 4.05E-09 2x: 9.66E+05 2u: 1.10E-01 ir: 2.87E-09 iu: 3.53E-02 rsn:   0
 12 2r: 3.01E-08 2x: 9.66E+05 2u: 1.10E-01 ir: 2.13E-08 iu: 3.53E-02 rsn:   0
 13 2r: 4.05E-09 2x: 9.66E+05 2u: 1.10E-01 ir: 2.87E-09 iu: 3.53E-02 rsn:   0
 14 2r: 3.01E-08 2x: 9.66E+05 2u: 1.10E-01 ir: 2.13E-08 iu: 3.53E-02 rsn:   0
 15 2r: 4.05E-09 2x: 9.66E+05 2u: 1.10E-01 ir: 2.87E-09 iu: 3.53E-02 rsn:   0
 16 2r: 3.01E-08 2x: 9.66E+05 2u: 1.10E-01 ir: 2.13E-08 iu: 3.53E-02 rsn:   0
 17 2r: 4.05E-09 2x: 9.66E+05 2u: 1.10E-01 ir: 2.87E-09 iu: 3.53E-02 rsn:   0
 18 2r: 3.01E-08 2x: 9.66E+05 2u: 1.10E-01 ir: 2.13E-08 iu: 3.53E-02 rsn:   0
 19 2r: 4.05E-09 2x: 9.66E+05 2u: 1.10E-01 ir: 2.87E-09 iu: 3.53E-02 rsn:   0
 20 2r: 3.01E-08 2x: 9.66E+05 2u: 1.10E-01 ir: 2.13E-08 iu: 3.53E-02 rsn:   0
  0 2r: 2.42E-06 2x: 0.00E+00 2u: 0.00E+00 ir: 1.18E-06 iu: 0.00E+00 rsn:   0
  1 2r: 1.04E-08 2x: 9.66E+05 2u: 9.50E+01 ir: 5.86E-09 iu: 5.45E+01 rsn:   0
  2 2r: 5.41E-10 2x: 9.66E+05 2u: 3.70E-01 ir: 3.83E-10 iu: 2.39E-01 rsn:   0
  3 2r: 4.27E-12 2x: 9.66E+05 2u: 1.55E-03 ir: 3.02E-12 iu: 4.97E-04 rsn: stol
 Step     67 Time=  6.17795E+00 Dt=  5.04075E-03 [hour] snes_conv_reason:    4
  newton =  23 [     372] linear =    23 [       372] cuts =  1 [   4]
  --> max chng: dpmx=   5.4283E+01

== RICHARDS FLOW ===============================================================
  0 2r: 2.42E-06 2x: 0.00E+00 2u: 0.00E+00 ir: 1.19E-06 iu: 0.00E+00 rsn:   0
  1 2r: 9.20E-09 2x: 9.66E+05 2u: 9.52E+01 ir: 5.87E-09 iu: 5.49E+01 rsn:   0
  2 2r: 2.77E-08 2x: 9.66E+05 2u: 3.80E-01 ir: 1.96E-08 iu: 2.45E-01 rsn:   0
  3 2r: 3.50E-09 2x: 9.66E+05 2u: 9.56E-02 ir: 2.48E-09 iu: 3.07E-02 rsn:   0
  4 2r: 2.77E-08 2x: 9.66E+05 2u: 9.56E-02 ir: 1.96E-08 iu: 3.07E-02 rsn:   0
  5 2r: 3.50E-09 2x: 9.66E+05 2u: 9.56E-02 ir: 2.48E-09 iu: 3.07E-02 rsn:   0
  6 2r: 2.77E-08 2x: 9.66E+05 2u: 9.56E-02 ir: 1.96E-08 iu: 3.07E-02 rsn:   0
  7 2r: 3.50E-09 2x: 9.66E+05 2u: 9.56E-02 ir: 2.48E-09 iu: 3.07E-02 rsn:   0
  8 2r: 2.77E-08 2x: 9.66E+05 2u: 9.56E-02 ir: 1.96E-08 iu: 3.07E-02 rsn:   0
  9 2r: 3.50E-09 2x: 9.66E+05 2u: 9.56E-02 ir: 2.48E-09 iu: 3.07E-02 rsn:   0
 10 2r: 2.77E-08 2x: 9.66E+05 2u: 9.56E-02 ir: 1.96E-08 iu: 3.07E-02 rsn:   0
 11 2r: 3.50E-09 2x: 9.66E+05 2u: 9.56E-02 ir: 2.48E-09 iu: 3.07E-02 rsn:   0
 12 2r: 2.77E-08 2x: 9.66E+05 2u: 9.56E-02 ir: 1.96E-08 iu: 3.07E-02 rsn:   0
 13 2r: 3.50E-09 2x: 9.66E+05 2u: 9.56E-02 ir: 2.48E-09 iu: 3.07E-02 rsn:   0
 14 2r: 2.77E-08 2x: 9.66E+05 2u: 9.56E-02 ir: 1.96E-08 iu: 3.07E-02 rsn:   0
 15 2r: 3.50E-09 2x: 9.66E+05 2u: 9.56E-02 ir: 2.48E-09 iu: 3.07E-02 rsn:   0
 16 2r: 2.77E-08 2x: 9.66E+05 2u: 9.56E-02 ir: 1.96E-08 iu: 3.07E-02 rsn:   0
 17 2r: 3.50E-09 2x: 9.66E+05 2u: 9.56E-02 ir: 2.48E-09 iu: 3.07E-02 rsn:   0
 18 2r: 2.77E-08 2x: 9.66E+05 2u: 9.56E-02 ir: 1.96E-08 iu: 3.07E-02 rsn:   0
 19 2r: 3.50E-09 2x: 9.66E+05 2u: 9.56E-02 ir: 2.48E-09 iu: 3.07E-02 rsn:   0
 20 2r: 2.77E-08 2x: 9.66E+05 2u: 9.56E-02 ir: 1.96E-08 iu: 3.07E-02 rsn:   0
  0 2r: 2.42E-06 2x: 0.00E+00 2u: 0.00E+00 ir: 1.19E-06 iu: 0.00E+00 rsn:   0
  1 2r: 5.17E-09 2x: 9.66E+05 2u: 4.74E+01 ir: 2.87E-09 iu: 2.73E+01 rsn:   0
  2 2r: 2.54E-10 2x: 9.66E+05 2u: 9.29E-02 ir: 1.79E-10 iu: 6.11E-02 rsn:   0
  3 2r: 1.83E-12 2x: 9.66E+05 2u: 4.76E-04 ir: 1.29E-12 iu: 1.53E-04 rsn: stol
 Step     68 Time=  6.18047E+00 Dt=  2.52037E-03 [hour] snes_conv_reason:    4
  newton =  23 [     395] linear =    23 [       395] cuts =  1 [   5]
  --> max chng: dpmx=   2.7189E+01

== RICHARDS FLOW ===============================================================
  0 2r: 2.42E-06 2x: 0.00E+00 2u: 0.00E+00 ir: 1.19E-06 iu: 0.00E+00 rsn:   0
  1 2r: 4.89E-09 2x: 9.66E+05 2u: 4.74E+01 ir: 2.87E-09 iu: 2.74E+01 rsn:   0
  2 2r: 2.70E-08 2x: 9.66E+05 2u: 1.13E-01 ir: 1.91E-08 iu: 6.18E-02 rsn:   0
  3 2r: 3.34E-09 2x: 9.66E+05 2u: 9.18E-02 ir: 2.37E-09 iu: 2.95E-02 rsn:   0
  4 2r: 2.70E-08 2x: 9.66E+05 2u: 9.18E-02 ir: 1.91E-08 iu: 2.95E-02 rsn:   0
  5 2r: 3.34E-09 2x: 9.66E+05 2u: 9.18E-02 ir: 2.37E-09 iu: 2.95E-02 rsn:   0
  6 2r: 2.70E-08 2x: 9.66E+05 2u: 9.18E-02 ir: 1.91E-08 iu: 2.95E-02 rsn:   0
  7 2r: 3.34E-09 2x: 9.66E+05 2u: 9.18E-02 ir: 2.37E-09 iu: 2.95E-02 rsn:   0
  8 2r: 2.70E-08 2x: 9.66E+05 2u: 9.18E-02 ir: 1.91E-08 iu: 2.95E-02 rsn:   0
  9 2r: 3.34E-09 2x: 9.66E+05 2u: 9.18E-02 ir: 2.37E-09 iu: 2.95E-02 rsn:   0
 10 2r: 2.70E-08 2x: 9.66E+05 2u: 9.18E-02 ir: 1.91E-08 iu: 2.95E-02 rsn:   0
 11 2r: 3.34E-09 2x: 9.66E+05 2u: 9.18E-02 ir: 2.37E-09 iu: 2.95E-02 rsn:   0
 12 2r: 2.70E-08 2x: 9.66E+05 2u: 9.18E-02 ir: 1.91E-08 iu: 2.95E-02 rsn:   0
 13 2r: 3.34E-09 2x: 9.66E+05 2u: 9.18E-02 ir: 2.37E-09 iu: 2.95E-02 rsn:   0
 14 2r: 2.70E-08 2x: 9.66E+05 2u: 9.18E-02 ir: 1.91E-08 iu: 2.95E-02 rsn:   0
 15 2r: 3.34E-09 2x: 9.66E+05 2u: 9.18E-02 ir: 2.37E-09 iu: 2.95E-02 rsn:   0
 16 2r: 2.70E-08 2x: 9.66E+05 2u: 9.18E-02 ir: 1.91E-08 iu: 2.95E-02 rsn:   0
 17 2r: 3.34E-09 2x: 9.66E+05 2u: 9.18E-02 ir: 2.37E-09 iu: 2.95E-02 rsn:   0
 18 2r: 2.70E-08 2x: 9.66E+05 2u: 9.18E-02 ir: 1.91E-08 iu: 2.95E-02 rsn:   0
 19 2r: 3.34E-09 2x: 9.66E+05 2u: 9.18E-02 ir: 2.37E-09 iu: 2.95E-02 rsn:   0
 20 2r: 2.70E-08 2x: 9.66E+05 2u: 9.18E-02 ir: 1.91E-08 iu: 2.95E-02 rsn:   0
  0 2r: 2.42E-06 2x: 0.00E+00 2u: 0.00E+00 ir: 1.19E-06 iu: 0.00E+00 rsn:   0
  1 2r: 2.50E-09 2x: 9.66E+05 2u: 2.37E+01 ir: 1.42E-09 iu: 1.36E+01 rsn:   0
  2 2r: 8.83E-11 2x: 9.66E+05 2u: 2.33E-02 ir: 6.24E-11 iu: 1.55E-02 rsn:   0
  3 2r: 3.93E-13 2x: 9.66E+05 2u: 1.13E-04 ir: 2.78E-13 iu: 3.63E-05 rsn: stol
 Step     69 Time=  6.18173E+00 Dt=  1.26019E-03 [hour] snes_conv_reason:    4
  newton =  23 [     418] linear =    23 [       418] cuts =  1 [   6]
  --> max chng: dpmx=   1.3606E+01

== RICHARDS FLOW ===============================================================
  0 2r: 2.42E-06 2x: 0.00E+00 2u: 0.00E+00 ir: 1.19E-06 iu: 0.00E+00 rsn:   0
  1 2r: 3.03E-09 2x: 9.66E+05 2u: 2.37E+01 ir: 1.52E-09 iu: 1.36E+01 rsn:   0
  2 2r: 2.69E-08 2x: 9.66E+05 2u: 6.38E-02 ir: 1.90E-08 iu: 1.91E-02 rsn:   0
  3 2r: 3.30E-09 2x: 9.66E+05 2u: 9.11E-02 ir: 2.34E-09 iu: 2.93E-02 rsn:   0
  4 2r: 2.69E-08 2x: 9.66E+05 2u: 9.11E-02 ir: 1.90E-08 iu: 2.93E-02 rsn:   0
  5 2r: 3.30E-09 2x: 9.66E+05 2u: 9.11E-02 ir: 2.34E-09 iu: 2.93E-02 rsn:   0
  6 2r: 2.69E-08 2x: 9.66E+05 2u: 9.11E-02 ir: 1.90E-08 iu: 2.93E-02 rsn:   0
  7 2r: 3.30E-09 2x: 9.66E+05 2u: 9.11E-02 ir: 2.34E-09 iu: 2.93E-02 rsn:   0
  8 2r: 2.69E-08 2x: 9.66E+05 2u: 9.11E-02 ir: 1.90E-08 iu: 2.93E-02 rsn:   0
  9 2r: 3.30E-09 2x: 9.66E+05 2u: 9.11E-02 ir: 2.34E-09 iu: 2.93E-02 rsn:   0
 10 2r: 2.69E-08 2x: 9.66E+05 2u: 9.11E-02 ir: 1.90E-08 iu: 2.93E-02 rsn:   0
 11 2r: 3.30E-09 2x: 9.66E+05 2u: 9.11E-02 ir: 2.34E-09 iu: 2.93E-02 rsn:   0
 12 2r: 2.69E-08 2x: 9.66E+05 2u: 9.11E-02 ir: 1.90E-08 iu: 2.93E-02 rsn:   0
 13 2r: 3.30E-09 2x: 9.66E+05 2u: 9.11E-02 ir: 2.34E-09 iu: 2.93E-02 rsn:   0
 14 2r: 2.69E-08 2x: 9.66E+05 2u: 9.11E-02 ir: 1.90E-08 iu: 2.93E-02 rsn:   0
 15 2r: 3.30E-09 2x: 9.66E+05 2u: 9.11E-02 ir: 2.34E-09 iu: 2.93E-02 rsn:   0
 16 2r: 2.69E-08 2x: 9.66E+05 2u: 9.11E-02 ir: 1.90E-08 iu: 2.93E-02 rsn:   0
 17 2r: 3.30E-09 2x: 9.66E+05 2u: 9.11E-02 ir: 2.34E-09 iu: 2.93E-02 rsn:   0
 18 2r: 2.69E-08 2x: 9.66E+05 2u: 9.11E-02 ir: 1.90E-08 iu: 2.93E-02 rsn:   0
 19 2r: 3.30E-09 2x: 9.66E+05 2u: 9.11E-02 ir: 2.34E-09 iu: 2.93E-02 rsn:   0
 20 2r: 2.69E-08 2x: 9.66E+05 2u: 9.11E-02 ir: 1.90E-08 iu: 2.93E-02 rsn:   0
  0 2r: 2.42E-06 2x: 0.00E+00 2u: 0.00E+00 ir: 1.19E-06 iu: 0.00E+00 rsn:   0
  1 2r: 1.18E-09 2x: 9.66E+05 2u: 1.18E+01 ir: 7.06E-10 iu: 6.81E+00 rsn:   0
  2 2r: 2.17E-11 2x: 9.66E+05 2u: 5.84E-03 ir: 1.54E-11 iu: 3.89E-03 rsn: stol
 Step     70 Time=  6.18236E+00 Dt=  6.30094E-04 [hour] snes_conv_reason:    4
  newton =  22 [     440] linear =    22 [       440] cuts =  1 [   7]
  --> max chng: dpmx=   6.8057E+00

== RICHARDS FLOW ===============================================================
  0 2r: 2.42E-06 2x: 0.00E+00 2u: 0.00E+00 ir: 1.19E-06 iu: 0.00E+00 rsn:   0
  1 2r: 1.82E-09 2x: 9.66E+05 2u: 1.18E+01 ir: 1.04E-09 iu: 6.82E+00 rsn:   0
  2 2r: 5.23E-10 2x: 9.66E+05 2u: 5.83E-03 ir: 3.70E-10 iu: 3.90E-03 rsn: stol
 Step     71 Time=  6.18299E+00 Dt=  6.30094E-04 [hour] snes_conv_reason:    4
  newton =   2 [     442] linear =     2 [       442] cuts =  0 [   7]
  --> max chng: dpmx=   6.8122E+00

== RICHARDS FLOW ===============================================================
  0 2r: 2.42E-06 2x: 0.00E+00 2u: 0.00E+00 ir: 1.19E-06 iu: 0.00E+00 rsn:   0
  1 2r: 1.17E-09 2x: 9.66E+05 2u: 1.18E+01 ir: 7.06E-10 iu: 6.82E+00 rsn:   0
  2 2r: 3.29E-16 2x: 9.66E+05 2u: 1.49E-02 ir: 2.48E-16 iu: 4.42E-03 rsn: rtol
 Step     72 Time=  6.18362E+00 Dt=  6.30094E-04 [hour] snes_conv_reason:    3
  newton =   2 [     444] linear =     2 [       444] cuts =  0 [   7]
  --> max chng: dpmx=   6.8187E+00

== RICHARDS FLOW ===============================================================
  0 2r: 2.42E-06 2x: 0.00E+00 2u: 0.00E+00 ir: 1.19E-06 iu: 0.00E+00 rsn:   0
  1 2r: 1.07E-09 2x: 9.66E+05 2u: 1.18E+01 ir: 7.06E-10 iu: 6.83E+00 rsn:   0
  2 2r: 3.22E-16 2x: 9.66E+05 2u: 5.83E-03 ir: 2.49E-16 iu: 3.91E-03 rsn: rtol
 Step     73 Time=  6.18425E+00 Dt=  6.30094E-04 [hour] snes_conv_reason:    3
  newton =   2 [     446] linear =     2 [       446] cuts =  0 [   7]
  --> max chng: dpmx=   6.8251E+00

== RICHARDS FLOW ===============================================================
  0 2r: 2.42E-06 2x: 0.00E+00 2u: 0.00E+00 ir: 1.19E-06 iu: 0.00E+00 rsn:   0
  1 2r: 1.07E-09 2x: 9.66E+05 2u: 1.18E+01 ir: 7.06E-10 iu: 6.84E+00 rsn:   0
  2 2r: 3.22E-16 2x: 9.66E+05 2u: 5.84E-03 ir: 2.48E-16 iu: 3.92E-03 rsn: rtol
 Step     74 Time=  6.18488E+00 Dt=  6.30094E-04 [hour] snes_conv_reason:    3
  newton =   2 [     448] linear =     2 [       448] cuts =  0 [   7]
  --> max chng: dpmx=   6.8314E+00

== RICHARDS FLOW ===============================================================
  0 2r: 2.42E-06 2x: 0.00E+00 2u: 0.00E+00 ir: 1.19E-06 iu: 0.00E+00 rsn:   0
  1 2r: 1.07E-09 2x: 9.66E+05 2u: 1.18E+01 ir: 7.06E-10 iu: 6.84E+00 rsn:   0
  2 2r: 3.22E-16 2x: 9.66E+05 2u: 5.84E-03 ir: 2.48E-16 iu: 3.93E-03 rsn: rtol
 Step     75 Time=  6.18551E+00 Dt=  6.30094E-04 [hour] snes_conv_reason:    3
  newton =   2 [     450] linear =     2 [       450] cuts =  0 [   7]
  --> max chng: dpmx=   6.8377E+00

== RICHARDS FLOW ===============================================================
  0 2r: 2.42E-06 2x: 0.00E+00 2u: 0.00E+00 ir: 1.19E-06 iu: 0.00E+00 rsn:   0
  1 2r: 2.14E-09 2x: 9.66E+05 2u: 2.37E+01 ir: 1.42E-09 iu: 1.37E+01 rsn:   0
  2 2r: 2.62E-15 2x: 9.66E+05 2u: 2.34E-02 ir: 2.03E-15 iu: 1.58E-02 rsn: rtol
 Step     76 Time=  6.18678E+00 Dt=  1.26019E-03 [hour] snes_conv_reason:    3
  newton =   2 [     452] linear =     2 [       452] cuts =  0 [   7]
  --> max chng: dpmx=   1.3708E+01

== RICHARDS FLOW ===============================================================
  0 2r: 2.42E-06 2x: 0.00E+00 2u: 0.00E+00 ir: 1.19E-06 iu: 0.00E+00 rsn:   0
  1 2r: 4.33E-09 2x: 9.66E+05 2u: 4.76E+01 ir: 2.87E-09 iu: 2.76E+01 rsn:   0
  2 2r: 2.15E-14 2x: 9.66E+05 2u: 9.36E-02 ir: 1.69E-14 iu: 6.34E-02 rsn: rtol
 Step     77 Time=  6.18930E+00 Dt=  2.52037E-03 [hour] snes_conv_reason:    3
  newton =   2 [     454] linear =     2 [       454] cuts =  0 [   7]
  --> max chng: dpmx=   2.7541E+01

== RICHARDS FLOW ===============================================================
  0 2r: 2.42E-06 2x: 0.00E+00 2u: 0.00E+00 ir: 1.20E-06 iu: 0.00E+00 rsn:   0
  1 2r: 8.80E-09 2x: 9.66E+05 2u: 9.56E+01 ir: 5.88E-09 iu: 5.58E+01 rsn:   0
  2 2r: 1.82E-13 2x: 9.66E+05 2u: 3.75E-01 ir: 1.46E-13 iu: 2.56E-01 rsn:   0
  3 2r: 4.22E-18 2x: 9.66E+05 2u: 7.93E-06 ir: 1.30E-18 iu: 5.56E-06 rsn: rtol
 Step     78 Time=  6.19434E+00 Dt=  5.04075E-03 [hour] snes_conv_reason:    3
  newton =   3 [     457] linear =     3 [       457] cuts =  0 [   7]
  --> max chng: dpmx=   5.5550E+01

== RICHARDS FLOW ===============================================================
  0 2r: 2.43E-06 2x: 0.00E+00 2u: 0.00E+00 ir: 1.20E-06 iu: 0.00E+00 rsn:   0
  1 2r: 1.83E-08 2x: 9.66E+05 2u: 1.93E+02 ir: 1.23E-08 iu: 1.14E+02 rsn:   0
  2 2r: 1.65E-12 2x: 9.66E+05 2u: 1.51E+00 ir: 1.35E-12 iu: 1.05E+00 rsn:   0
  3 2r: 3.93E-18 2x: 9.66E+05 2u: 1.36E-04 ir: 1.46E-18 iu: 9.61E-05 rsn: rtol
 Step     79 Time=  6.20442E+00 Dt=  1.00815E-02 [hour] snes_conv_reason:    3
  newton =   3 [     460] linear =     3 [       460] cuts =  0 [   7]
  --> max chng: dpmx=   1.1270E+02

== RICHARDS FLOW ===============================================================
  0 2r: 2.43E-06 2x: 0.00E+00 2u: 0.00E+00 ir: 1.20E-06 iu: 0.00E+00 rsn:   0
  1 2r: 3.95E-08 2x: 9.66E+05 2u: 3.94E+02 ir: 2.69E-08 iu: 2.34E+02 rsn:   0
  2 2r: 1.74E-11 2x: 9.66E+05 2u: 6.16E+00 ir: 1.37E-11 iu: 4.44E+00 rsn:   0
  3 2r: 5.51E-18 2x: 9.66E+05 2u: 2.60E-03 ir: 3.00E-18 iu: 1.91E-03 rsn: rtol
 Step     80 Time=  6.22458E+00 Dt=  2.01630E-02 [hour] snes_conv_reason:    3
  newton =   3 [     463] linear =     3 [       463] cuts =  0 [   7]
  --> max chng: dpmx=   2.2981E+02

== RICHARDS FLOW ===============================================================
  0 2r: 2.43E-06 2x: 0.00E+00 2u: 0.00E+00 ir: 1.21E-06 iu: 0.00E+00 rsn:   0
  1 2r: 5.23E-08 2x: 9.66E+05 2u: 5.03E+02 ir: 3.49E-08 iu: 2.98E+02 rsn:   0
  2 2r: 4.34E-11 2x: 9.66E+05 2u: 9.98E+00 ir: 2.84E-11 iu: 7.44E+00 rsn:   0
  3 2r: 5.33E-17 2x: 9.66E+05 2u: 7.51E-03 ir: 3.03E-17 iu: 6.04E-03 rsn: rtol
 Step     81 Time=  6.25000E+00 Dt=  2.54193E-02 [hour] snes_conv_reason:    3
  newton =   3 [     466] linear =     3 [       466] cuts =  0 [   7]
  --> max chng: dpmx=   2.9084E+02

== RICHARDS FLOW ===============================================================
  0 2r: 2.44E-06 2x: 0.00E+00 2u: 0.00E+00 ir: 1.21E-06 iu: 0.00E+00 rsn:   0
  1 2r: 9.50E-08 2x: 9.66E+05 2u: 8.20E+02 ir: 6.06E-08 iu: 4.75E+02 rsn:   0
  2 2r: 4.21E-10 2x: 9.66E+05 2u: 2.61E+01 ir: 2.36E-10 iu: 1.97E+01 rsn:   0
  3 2r: 7.47E-14 2x: 9.66E+05 2u: 5.87E-02 ir: 5.28E-14 iu: 5.03E-02 rsn:   0
  4 2r: 6.14E-18 2x: 9.66E+05 2u: 1.01E-06 ir: 3.13E-18 iu: 4.41E-07 rsn: rtol
 Step     82 Time=  6.29033E+00 Dt=  4.03260E-02 [hour] snes_conv_reason:    3
  newton =   4 [     470] linear =     4 [       470] cuts =  0 [   7]
  --> max chng: dpmx=   4.5510E+02

== RICHARDS FLOW ===============================================================
  0 2r: 2.44E-06 2x: 0.00E+00 2u: 0.00E+00 ir: 1.20E-06 iu: 0.00E+00 rsn:   0
  1 2r: 2.59E-07 2x: 9.67E+05 2u: 1.73E+03 ir: 1.92E-07 iu: 1.05E+03 rsn:   0
  2 2r: 4.19E-09 2x: 9.67E+05 2u: 1.17E+02 ir: 3.83E-09 iu: 7.78E+01 rsn:   0
  3 2r: 1.20E-12 2x: 9.67E+05 2u: 1.34E+00 ir: 1.03E-12 iu: 1.01E+00 rsn:   0
  4 2r: 3.77E-18 2x: 9.67E+05 2u: 2.36E-04 ir: 1.72E-18 iu: 2.01E-04 rsn: rtol
 Step     83 Time=  6.37098E+00 Dt=  8.06520E-02 [hour] snes_conv_reason:    3
  newton =   4 [     474] linear =     4 [       474] cuts =  0 [   7]
  --> max chng: dpmx=   9.7818E+02

== RICHARDS FLOW ===============================================================
  0 2r: 2.44E-06 2x: 0.00E+00 2u: 0.00E+00 ir: 1.22E-06 iu: 0.00E+00 rsn:   0
  1 2r: 6.35E-07 2x: 9.67E+05 2u: 2.88E+03 ir: 3.93E-07 iu: 1.71E+03 rsn:   0
  2 2r: 3.47E-07 2x: 9.67E+05 2u: 3.10E+02 ir: 2.44E-07 iu: 2.23E+02 rsn:   0
  3 2r: 7.13E-08 2x: 9.67E+05 2u: 1.48E+01 ir: 5.04E-08 iu: 9.82E+00 rsn:   0
  4 2r: 6.50E-09 2x: 9.67E+05 2u: 6.08E-01 ir: 4.60E-09 iu: 1.86E-01 rsn:   0
  5 2r: 4.42E-11 2x: 9.67E+05 2u: 6.60E-02 ir: 3.12E-11 iu: 2.02E-02 rsn:   0
  6 2r: 2.00E-15 2x: 9.67E+05 2u: 4.54E-04 ir: 1.42E-15 iu: 1.39E-04 rsn: rtol
 Step     84 Time=  6.50000E+00 Dt=  1.29022E-01 [hour] snes_conv_reason:    3
  newton =   6 [     480] linear =     6 [       480] cuts =  0 [   7]
  --> max chng: dpmx=   1.4812E+03

== RICHARDS FLOW ===============================================================
  0 2r: 2.42E-06 2x: 0.00E+00 2u: 0.00E+00 ir: 1.18E-06 iu: 0.00E+00 rsn:   0
  1 2r: 9.79E-07 2x: 9.68E+05 2u: 3.60E+03 ir: 6.62E-07 iu: 2.16E+03 rsn:   0
  2 2r: 1.35E-07 2x: 9.68E+05 2u: 4.64E+02 ir: 7.41E-08 iu: 3.12E+02 rsn:   0
  3 2r: 7.10E-09 2x: 9.68E+05 2u: 3.56E+01 ir: 5.01E-09 iu: 2.18E+01 rsn:   0
  4 2r: 2.65E-11 2x: 9.68E+05 2u: 2.11E-01 ir: 1.87E-11 iu: 1.13E-01 rsn:   0
  5 2r: 3.68E-16 2x: 9.68E+05 2u: 3.41E-04 ir: 2.61E-16 iu: 1.02E-04 rsn: rtol
 Step     85 Time=  6.66130E+00 Dt=  1.61304E-01 [hour] snes_conv_reason:    3
  newton =   5 [     485] linear =     5 [       485] cuts =  0 [   7]
  --> max chng: dpmx=   1.8297E+03

== RICHARDS FLOW ===============================================================
  0 2r: 2.40E-06 2x: 0.00E+00 2u: 0.00E+00 ir: 1.17E-06 iu: 0.00E+00 rsn:   0
  1 2r: 1.50E-07 2x: 9.69E+05 2u: 1.03E+03 ir: 8.36E-08 iu: 5.76E+02 rsn:   0
  2 2r: 4.50E-08 2x: 9.69E+05 2u: 3.94E+01 ir: 3.18E-08 iu: 2.74E+01 rsn:   0
  3 2r: 5.53E-09 2x: 9.69E+05 2u: 3.05E-01 ir: 3.91E-09 iu: 1.12E-01 rsn:   0
  4 2r: 6.83E-11 2x: 9.69E+05 2u: 4.28E-02 ir: 4.83E-11 iu: 1.30E-02 rsn:   0
  5 2r: 1.01E-14 2x: 9.69E+05 2u: 5.41E-04 ir: 7.17E-15 iu: 1.65E-04 rsn: rtol
 Step     86 Time=  6.71453E+00 Dt=  5.32303E-02 [hour] snes_conv_reason:    3
  newton =   5 [     490] linear =     5 [       490] cuts =  0 [   7]
  --> max chng: dpmx=   5.5550E+02

== RICHARDS FLOW ===============================================================
  0 2r: 2.40E-06 2x: 0.00E+00 2u: 0.00E+00 ir: 1.17E-06 iu: 0.00E+00 rsn:   0
  1 2r: 4.37E-08 2x: 9.69E+05 2u: 3.26E+02 ir: 2.22E-08 iu: 1.85E+02 rsn:   0
  2 2r: 1.12E-08 2x: 9.69E+05 2u: 4.12E+00 ir: 7.92E-09 iu: 2.65E+00 rsn:   0
  3 2r: 9.66E-10 2x: 9.69E+05 2u: 4.34E-02 ir: 6.83E-10 iu: 1.33E-02 rsn:   0
  4 2r: 6.51E-12 2x: 9.69E+05 2u: 4.43E-03 ir: 4.60E-12 iu: 1.35E-03 rsn: stol
 Step     87 Time=  6.73210E+00 Dt=  1.75660E-02 [hour] snes_conv_reason:    4
  newton =   4 [     494] linear =     4 [       494] cuts =  0 [   7]
  --> max chng: dpmx=   1.8206E+02

== RICHARDS FLOW ===============================================================
  0 2r: 2.40E-06 2x: 0.00E+00 2u: 0.00E+00 ir: 1.18E-06 iu: 0.00E+00 rsn:   0
  1 2r: 3.67E-08 2x: 9.69E+05 2u: 3.35E+02 ir: 2.20E-08 iu: 1.92E+02 rsn:   0
  2 2r: 9.87E-12 2x: 9.69E+05 2u: 4.37E+00 ir: 8.16E-12 iu: 2.97E+00 rsn:   0
  3 2r: 5.34E-18 2x: 9.69E+05 2u: 1.21E-03 ir: 2.33E-18 iu: 8.39E-04 rsn: rtol
 Step     88 Time=  6.75000E+00 Dt=  1.78997E-02 [hour] snes_conv_reason:    3
  newton =   3 [     497] linear =     3 [       497] cuts =  0 [   7]
  --> max chng: dpmx=   1.8863E+02

== RICHARDS FLOW ===============================================================
  0 2r: 2.40E-06 2x: 0.00E+00 2u: 0.00E+00 ir: 1.18E-06 iu: 0.00E+00 rsn:   0
  1 2r: 7.28E-08 2x: 9.69E+05 2u: 6.79E+02 ir: 4.97E-08 iu: 3.91E+02 rsn:   0
  2 2r: 1.18E-10 2x: 9.69E+05 2u: 1.75E+01 ir: 8.49E-11 iu: 1.26E+01 rsn:   0
  3 2r: 3.32E-16 2x: 9.69E+05 2u: 2.46E-02 ir: 2.14E-16 iu: 1.83E-02 rsn: rtol
 Step     89 Time=  6.78513E+00 Dt=  3.51320E-02 [hour] snes_conv_reason:    3
  newton =   3 [     500] linear =     3 [       500] cuts =  0 [   7]
  --> max chng: dpmx=   3.7795E+02

== RICHARDS FLOW ===============================================================
  0 2r: 2.41E-06 2x: 0.00E+00 2u: 0.00E+00 ir: 1.18E-06 iu: 0.00E+00 rsn:   0
  1 2r: 1.97E-07 2x: 9.69E+05 2u: 1.43E+03 ir: 1.27E-07 iu: 8.03E+02 rsn:   0
  2 2r: 4.03E-09 2x: 9.69E+05 2u: 7.74E+01 ir: 2.45E-09 iu: 5.51E+01 rsn:   0
  3 2r: 9.56E-12 2x: 9.69E+05 2u: 5.70E-01 ir: 6.76E-12 iu: 4.72E-01 rsn:   0
  4 2r: 6.13E-17 2x: 9.69E+05 2u: 1.26E-04 ir: 4.32E-17 iu: 4.71E-05 rsn: rtol
 Step     90 Time=  6.85540E+00 Dt=  7.02640E-02 [hour] snes_conv_reason:    3
  newton =   4 [     504] linear =     4 [       504] cuts =  0 [   7]
  --> max chng: dpmx=   7.7022E+02

== RICHARDS FLOW ===============================================================
  0 2r: 2.41E-06 2x: 0.00E+00 2u: 0.00E+00 ir: 1.17E-06 iu: 0.00E+00 rsn:   0
  1 2r: 7.31E-07 2x: 9.70E+05 2u: 3.18E+03 ir: 4.94E-07 iu: 1.90E+03 rsn:   0
  2 2r: 5.24E-08 2x: 9.70E+05 2u: 3.68E+02 ir: 3.29E-08 iu: 2.53E+02 rsn:   0
  3 2r: 1.77E-10 2x: 9.70E+05 2u: 2.07E+01 ir: 1.15E-10 iu: 1.23E+01 rsn:   0
  4 2r: 2.83E-15 2x: 9.70E+05 2u: 6.84E-02 ir: 1.85E-15 iu: 4.47E-02 rsn: rtol
 Step     91 Time=  7.00000E+00 Dt=  1.44604E-01 [hour] snes_conv_reason:    3
  newton =   4 [     508] linear =     4 [       508] cuts =  0 [   7]
  --> max chng: dpmx=   1.6391E+03

== RICHARDS FLOW ===============================================================
  0 2r: 2.39E-06 2x: 0.00E+00 2u: 0.00E+00 ir: 1.17E-06 iu: 0.00E+00 rsn:   0
  1 2r: 6.28E-07 2x: 9.71E+05 2u: 3.00E+03 ir: 4.64E-07 iu: 1.77E+03 rsn:   0
  2 2r: 3.70E-08 2x: 9.71E+05 2u: 3.25E+02 ir: 3.05E-08 iu: 2.02E+02 rsn:   0
  3 2r: 8.48E-11 2x: 9.71E+05 2u: 1.51E+01 ir: 7.91E-11 iu: 1.01E+01 rsn:   0
  4 2r: 4.44E-16 2x: 9.71E+05 2u: 2.48E-02 ir: 3.69E-16 iu: 1.66E-02 rsn: rtol
 Step     92 Time=  7.14053E+00 Dt=  1.40528E-01 [hour] snes_conv_reason:    3
  newton =   4 [     512] linear =     4 [       512] cuts =  0 [   7]
  --> max chng: dpmx=   1.5636E+03

== RICHARDS FLOW ===============================================================
  0 2r: 2.38E-06 2x: 0.00E+00 2u: 0.00E+00 ir: 1.16E-06 iu: 0.00E+00 rsn:   0
  1 2r: 4.03E-07 2x: 9.72E+05 2u: 2.24E+03 ir: 2.48E-07 iu: 1.27E+03 rsn:   0
  2 2r: 3.29E-07 2x: 9.72E+05 2u: 1.82E+02 ir: 2.32E-07 iu: 1.22E+02 rsn:   0
  3 2r: 7.37E-08 2x: 9.72E+05 2u: 6.39E+00 ir: 5.21E-08 iu: 2.86E+00 rsn:   0
  4 2r: 8.13E-09 2x: 9.72E+05 2u: 6.17E-01 ir: 5.75E-09 iu: 1.79E-01 rsn:   0
  5 2r: 7.87E-11 2x: 9.72E+05 2u: 8.40E-02 ir: 5.56E-11 iu: 2.44E-02 rsn:   0
  6 2r: 7.18E-15 2x: 9.72E+05 2u: 8.29E-04 ir: 5.08E-15 iu: 2.40E-04 rsn: rtol
 Step     93 Time=  7.25000E+00 Dt=  1.09472E-01 [hour] snes_conv_reason:    3
  newton =   6 [     518] linear =     6 [       518] cuts =  0 [   7]
  --> max chng: dpmx=   1.1780E+03

== RICHARDS FLOW ===============================================================
  0 2r: 2.37E-06 2x: 0.00E+00 2u: 0.00E+00 ir: 1.15E-06 iu: 0.00E+00 rsn:   0
  1 2r: 2.42E-06 2x: 9.73E+05 2u: 5.67E+03 ir: 1.78E-06 iu: 3.24E+03 rsn:   0
  2 2r: 5.46E-07 2x: 9.73E+05 2u: 9.88E+02 ir: 4.34E-07 iu: 6.07E+02 rsn:   0
  3 2r: 5.40E-08 2x: 9.73E+05 2u: 2.20E+02 ir: 3.28E-08 iu: 1.49E+02 rsn:   0
  4 2r: 1.42E-07 2x: 9.73E+05 2u: 6.44E+00 ir: 1.01E-07 iu: 4.40E+00 rsn:   0
  5 2r: 5.00E-08 2x: 9.73E+05 2u: 1.56E+00 ir: 3.54E-08 iu: 4.35E-01 rsn:   0
  6 2r: 1.42E-07 2x: 9.73E+05 2u: 1.56E+00 ir: 1.01E-07 iu: 4.35E-01 rsn:   0
  7 2r: 5.00E-08 2x: 9.73E+05 2u: 1.56E+00 ir: 3.54E-08 iu: 4.35E-01 rsn:   0
  8 2r: 1.42E-07 2x: 9.73E+05 2u: 1.56E+00 ir: 1.01E-07 iu: 4.35E-01 rsn:   0
  9 2r: 5.00E-08 2x: 9.73E+05 2u: 1.56E+00 ir: 3.54E-08 iu: 4.35E-01 rsn:   0
 10 2r: 1.42E-07 2x: 9.73E+05 2u: 1.56E+00 ir: 1.01E-07 iu: 4.35E-01 rsn:   0
 11 2r: 5.00E-08 2x: 9.73E+05 2u: 1.56E+00 ir: 3.54E-08 iu: 4.35E-01 rsn:   0
 12 2r: 1.42E-07 2x: 9.73E+05 2u: 1.56E+00 ir: 1.01E-07 iu: 4.35E-01 rsn:   0
 13 2r: 5.00E-08 2x: 9.73E+05 2u: 1.56E+00 ir: 3.54E-08 iu: 4.35E-01 rsn:   0
 14 2r: 1.42E-07 2x: 9.73E+05 2u: 1.56E+00 ir: 1.01E-07 iu: 4.35E-01 rsn:   0
 15 2r: 5.00E-08 2x: 9.73E+05 2u: 1.56E+00 ir: 3.54E-08 iu: 4.35E-01 rsn:   0
 16 2r: 1.42E-07 2x: 9.73E+05 2u: 1.56E+00 ir: 1.01E-07 iu: 4.35E-01 rsn:   0
 17 2r: 5.00E-08 2x: 9.73E+05 2u: 1.56E+00 ir: 3.54E-08 iu: 4.35E-01 rsn:   0
 18 2r: 1.42E-07 2x: 9.73E+05 2u: 1.56E+00 ir: 1.01E-07 iu: 4.35E-01 rsn:   0
 19 2r: 5.00E-08 2x: 9.73E+05 2u: 1.56E+00 ir: 3.54E-08 iu: 4.35E-01 rsn:   0
 20 2r: 1.42E-07 2x: 9.73E+05 2u: 1.56E+00 ir: 1.01E-07 iu: 4.35E-01 rsn:   0
  0 2r: 2.37E-06 2x: 0.00E+00 2u: 0.00E+00 ir: 1.15E-06 iu: 0.00E+00 rsn:   0
  1 2r: 5.08E-07 2x: 9.72E+05 2u: 2.59E+03 ir: 3.21E-07 iu: 1.46E+03 rsn:   0
  2 2r: 2.32E-08 2x: 9.72E+05 2u: 2.43E+02 ir: 1.27E-08 iu: 1.66E+02 rsn:   0
  3 2r: 5.10E-11 2x: 9.72E+05 2u: 7.47E+00 ir: 2.77E-11 iu: 5.02E+00 rsn:   0
  4 2r: 6.22E-16 2x: 9.72E+05 2u: 1.03E-02 ir: 4.37E-16 iu: 7.02E-03 rsn: rtol
 Step     94 Time=  7.37500E+00 Dt=  1.25000E-01 [hour] snes_conv_reason:    3
  newton =  24 [     542] linear =    24 [       542] cuts =  1 [   8]
  --> max chng: dpmx=   1.2967E+03

== RICHARDS FLOW ===============================================================
  0 2r: 2.37E-06 2x: 0.00E+00 2u: 0.00E+00 ir: 1.13E-06 iu: 0.00E+00 rsn:   0
  1 2r: 4.66E-07 2x: 9.73E+05 2u: 2.58E+03 ir: 3.34E-07 iu: 1.50E+03 rsn:   0
  2 2r: 1.93E-08 2x: 9.73E+05 2u: 2.40E+02 ir: 1.46E-08 iu: 1.56E+02 rsn:   0
  3 2r: 1.87E-11 2x: 9.73E+05 2u: 7.60E+00 ir: 1.58E-11 iu: 4.75E+00 rsn:   0
  4 2r: 1.61E-17 2x: 9.73E+05 2u: 7.04E-03 ir: 1.21E-17 iu: 3.59E-03 rsn: rtol
 Step     95 Time=  7.50000E+00 Dt=  1.25000E-01 [hour] snes_conv_reason:    3
  newton =   4 [     546] linear =     4 [       546] cuts =  0 [   8]
  --> max chng: dpmx=   1.3396E+03

== RICHARDS FLOW ===============================================================
  0 2r: 2.36E-06 2x: 0.00E+00 2u: 0.00E+00 ir: 1.14E-06 iu: 0.00E+00 rsn:   0
  1 2r: 4.79E-07 2x: 9.74E+05 2u: 2.58E+03 ir: 3.22E-07 iu: 1.49E+03 rsn:   0
  2 2r: 3.04E-07 2x: 9.74E+05 2u: 2.39E+02 ir: 2.15E-07 iu: 1.52E+02 rsn:   0
  3 2r: 7.67E-08 2x: 9.74E+05 2u: 8.54E+00 ir: 5.42E-08 iu: 4.69E+00 rsn:   0
  4 2r: 1.12E-08 2x: 9.74E+05 2u: 5.74E-01 ir: 7.90E-09 iu: 1.62E-01 rsn:   0
  5 2r: 1.81E-10 2x: 9.74E+05 2u: 1.10E-01 ir: 1.28E-10 iu: 3.12E-02 rsn:   0
  6 2r: 4.59E-14 2x: 9.74E+05 2u: 1.85E-03 ir: 3.24E-14 iu: 5.22E-04 rsn: stol
 Step     96 Time=  7.62500E+00 Dt=  1.25000E-01 [hour] snes_conv_reason:    4
  newton =   6 [     552] linear =     6 [       552] cuts =  0 [   8]
  --> max chng: dpmx=   1.3528E+03

== RICHARDS FLOW ===============================================================
  0 2r: 2.36E-06 2x: 0.00E+00 2u: 0.00E+00 ir: 1.14E-06 iu: 0.00E+00 rsn:   0
[...]
  newton =   3 [    3244] linear =     3 [      3244] cuts =  0 [  93]
  --> max chng: dpmx=   8.4167E+01

== RICHARDS FLOW ===============================================================
  0 2r: 2.76E-06 2x: 0.00E+00 2u: 0.00E+00 ir: 1.57E-06 iu: 0.00E+00 rsn:   0
  1 2r: 1.20E-07 2x: 1.02E+06 2u: 3.10E+02 ir: 5.50E-08 iu: 1.66E+02 rsn:   0
  2 2r: 7.75E-10 2x: 1.02E+06 2u: 1.52E+01 ir: 4.89E-10 iu: 7.17E+00 rsn:   0
  3 2r: 1.99E-13 2x: 1.02E+06 2u: 4.76E-02 ir: 1.41E-13 iu: 2.30E-02 rsn:   0
  4 2r: 7.44E-18 2x: 1.02E+06 2u: 4.51E-06 ir: 1.60E-18 iu: 8.37E-07 rsn: rtol
 Step    410 Time=  1.59491E+01 Dt=  2.06250E-02 [hour] snes_conv_reason:    3
  newton =   4 [    3248] linear =     4 [      3248] cuts =  0 [  93]
  --> max chng: dpmx=   1.7364E+02

== RICHARDS FLOW ===============================================================
  0 2r: 2.72E-06 2x: 0.00E+00 2u: 0.00E+00 ir: 1.49E-06 iu: 0.00E+00 rsn:   0
  1 2r: 5.50E-07 2x: 1.02E+06 2u: 6.79E+02 ir: 2.19E-07 iu: 3.50E+02 rsn:   0
  2 2r: 3.16E-07 2x: 1.02E+06 2u: 1.76E+02 ir: 2.53E-07 iu: 8.42E+01 rsn:   0
  3 2r: 1.10E-07 2x: 1.02E+06 2u: 3.14E+01 ir: 8.48E-08 iu: 1.61E+01 rsn:   0
  4 2r: 1.61E-08 2x: 1.02E+06 2u: 2.06E+00 ir: 1.14E-08 iu: 1.14E+00 rsn:   0
  5 2r: 3.36E-10 2x: 1.02E+06 2u: 2.63E-01 ir: 2.37E-10 iu: 4.85E-02 rsn:   0
  6 2r: 1.39E-13 2x: 1.02E+06 2u: 5.72E-03 ir: 9.84E-14 iu: 1.05E-03 rsn: stol
 Step    411 Time=  1.59904E+01 Dt=  4.12500E-02 [hour] snes_conv_reason:    4
  newton =   6 [    3254] linear =     6 [      3254] cuts =  0 [  93]
  --> max chng: dpmx=   4.5164E+02

== RICHARDS FLOW ===============================================================
  0 2r: 2.60E-06 2x: 0.00E+00 2u: 0.00E+00 ir: 1.30E-06 iu: 0.00E+00 rsn:   0
  1 2r: 2.12E-06 2x: 1.02E+06 2u: 4.21E+02 ir: 1.39E-06 iu: 2.42E+02 rsn:   0
  2 2r: 9.29E-06 2x: 1.02E+06 2u: 8.02E+02 ir: 7.42E-06 iu: 4.08E+02 rsn:   0
  3 2r: 1.43E-11 2x: 1.04E+06 2u: 1.88E+04 ir: 1.14E-11 iu: 3.05E+03 rsn:   0
  4 2r: 7.71E-18 2x: 1.04E+06 2u: 1.18E-02 ir: 1.79E-18 iu: 2.36E-03 rsn: rtol
 Step    412 Time=  1.60000E+01 Dt=  9.60937E-03 [hour] snes_conv_reason:    3
  newton =   4 [    3258] linear =     4 [      3258] cuts =  0 [  93]
  --> max chng: dpmx=   3.5448E+03

== RICHARDS FLOW ===============================================================
  0 2r: 1.74E-06 2x: 0.00E+00 2u: 0.00E+00 ir: 8.51E-07 iu: 0.00E+00 rsn:   0
  1 2r: 5.70E-12 2x: 1.07E+06 2u: 3.80E+04 ir: 2.72E-12 iu: 6.25E+03 rsn:   0
  2 2r: 8.14E-18 2x: 1.07E+06 2u: 4.89E-02 ir: 1.76E-18 iu: 1.00E-02 rsn: rtol
 Step    413 Time=  1.60136E+01 Dt=  1.36125E-02 [hour] snes_conv_reason:    3
  newton =   2 [    3260] linear =     2 [      3260] cuts =  0 [  93]
  --> max chng: dpmx=   6.2496E+03

== RICHARDS FLOW ===============================================================
  0 2r: 3.29E-09 2x: 0.00E+00 2u: 0.00E+00 ir: 5.42E-10 iu: 0.00E+00 rsn:   0
  1 2r: 4.56E-17 2x: 1.07E+06 2u: 1.82E+02 ir: 8.36E-18 iu: 2.60E+01 rsn:   0
  2 2r: 6.82E-18 2x: 1.07E+06 2u: 1.05E-06 ir: 1.84E-18 iu: 1.75E-07 rsn: rtol
 Step    414 Time=  1.60408E+01 Dt=  2.72250E-02 [hour] snes_conv_reason:    3
  newton =   2 [    3262] linear =     2 [      3262] cuts =  0 [  93]
  --> max chng: dpmx=   2.6036E+01

== RICHARDS FLOW ===============================================================
  0 2r: 7.91E-12 2x: 0.00E+00 2u: 0.00E+00 ir: 1.13E-12 iu: 0.00E+00 rsn:   0
  1 2r: 8.40E-18 2x: 1.07E+06 2u: 4.42E-01 ir: 1.76E-18 iu: 6.22E-02 rsn:   0
  2 2r: 6.96E-18 2x: 1.07E+06 2u: 7.02E-10 ir: 1.68E-18 iu: 1.13E-10 rsn: stol
 Step    415 Time=  1.60953E+01 Dt=  5.44500E-02 [hour] snes_conv_reason:    4
  newton =   2 [    3264] linear =     2 [      3264] cuts =  0 [  93]
  --> max chng: dpmx=   6.2232E-02

== RICHARDS FLOW ===============================================================
  0 2r: 9.58E-15 2x: 0.00E+00 2u: 0.00E+00 ir: 1.35E-15 iu: 0.00E+00 rsn:   0
  1 2r: 8.09E-18 2x: 1.07E+06 2u: 5.35E-04 ir: 1.85E-18 iu: 7.53E-05 rsn: stol
 Step    416 Time=  1.62042E+01 Dt=  1.08900E-01 [hour] snes_conv_reason:    4
  newton =   1 [    3265] linear =     1 [      3265] cuts =  0 [  93]
  --> max chng: dpmx=   7.5264E-05

== RICHARDS FLOW ===============================================================
  0 2r: 9.96E-18 2x: 0.00E+00 2u: 0.00E+00 ir: 2.39E-18 iu: 0.00E+00 rsn:   0
  1 2r: 7.08E-18 2x: 1.07E+06 2u: 3.24E-07 ir: 1.44E-18 iu: 4.56E-08 rsn: stol
 Step    417 Time=  1.62500E+01 Dt=  4.58125E-02 [hour] snes_conv_reason:    4
  newton =   1 [    3266] linear =     1 [      3266] cuts =  0 [  93]
  --> max chng: dpmx=   4.5547E-08

== RICHARDS FLOW ===============================================================
  0 2r: 7.08E-18 2x: 0.00E+00 2u: 0.00E+00 ir: 1.44E-18 iu: 0.00E+00 rsn:   0
  1 2r: 7.54E-18 2x: 1.07E+06 2u: 3.00E-10 ir: 1.76E-18 iu: 4.64E-11 rsn: stol
 Step    418 Time=  1.64678E+01 Dt=  2.17800E-01 [hour] snes_conv_reason:    4
  newton =   1 [    3267] linear =     1 [      3267] cuts =  0 [  93]
  --> max chng: dpmx=   4.3656E-11

== RICHARDS FLOW ===============================================================
  0 2r: 7.53E-18 2x: 0.00E+00 2u: 0.00E+00 ir: 1.76E-18 iu: 0.00E+00 rsn:   0
  1 2r: 7.39E-18 2x: 1.07E+06 2u: 1.76E-10 ir: 1.60E-18 iu: 3.49E-11 rsn: stol
 Step    419 Time=  1.65000E+01 Dt=  3.22000E-02 [hour] snes_conv_reason:    4
  newton =   1 [    3268] linear =     1 [      3268] cuts =  0 [  93]
  --> max chng: dpmx=   2.9104E-11

== RICHARDS FLOW ===============================================================
  0 2r: 7.39E-18 2x: 0.00E+00 2u: 0.00E+00 ir: 1.60E-18 iu: 0.00E+00 rsn:   0
  1 2r: 7.98E-18 2x: 1.07E+06 2u: 1.62E-10 ir: 1.68E-18 iu: 3.25E-11 rsn: stol
 Step    420 Time=  1.67500E+01 Dt=  2.50000E-01 [hour] snes_conv_reason:    4
  newton =   1 [    3269] linear =     1 [      3269] cuts =  0 [  93]
  --> max chng: dpmx=   2.9104E-11

== RICHARDS FLOW ===============================================================
  0 2r: 7.98E-18 2x: 0.00E+00 2u: 0.00E+00 ir: 1.68E-18 iu: 0.00E+00 rsn:   0
  1 2r: 7.54E-18 2x: 1.07E+06 2u: 4.57E-11 ir: 1.76E-18 iu: 8.28E-12 rsn: stol
 Step    421 Time=  1.70000E+01 Dt=  2.50000E-01 [hour] snes_conv_reason:    4
  newton =   1 [    3270] linear =     1 [      3270] cuts =  0 [  93]
  --> max chng: dpmx=   1.4552E-11

== RICHARDS FLOW ===============================================================
  0 2r: 7.54E-18 2x: 0.00E+00 2u: 0.00E+00 ir: 1.76E-18 iu: 0.00E+00 rsn:   0
  1 2r: 7.38E-18 2x: 1.07E+06 2u: 4.39E-11 ir: 1.76E-18 iu: 7.32E-12 rsn: stol
 Step    422 Time=  1.72500E+01 Dt=  2.50000E-01 [hour] snes_conv_reason:    4
  newton =   1 [    3271] linear =     1 [      3271] cuts =  0 [  93]
  --> max chng: dpmx=   1.4552E-11

== RICHARDS FLOW ===============================================================
  0 2r: 7.38E-18 2x: 0.00E+00 2u: 0.00E+00 ir: 1.76E-18 iu: 0.00E+00 rsn:   0
  1 2r: 7.22E-18 2x: 1.07E+06 2u: 4.39E-11 ir: 1.76E-18 iu: 7.50E-12 rsn: stol
 Step    423 Time=  1.75000E+01 Dt=  2.50000E-01 [hour] snes_conv_reason:    4
  newton =   1 [    3272] linear =     1 [      3272] cuts =  0 [  93]
  --> max chng: dpmx=   1.4552E-11

== RICHARDS FLOW ===============================================================
  0 2r: 7.22E-18 2x: 0.00E+00 2u: 0.00E+00 ir: 1.76E-18 iu: 0.00E+00 rsn:   0
  1 2r: 7.22E-18 2x: 1.07E+06 2u: 4.39E-11 ir: 1.76E-18 iu: 7.27E-12 rsn: stol
 Step    424 Time=  1.77500E+01 Dt=  2.50000E-01 [hour] snes_conv_reason:    4
  newton =   1 [    3273] linear =     1 [      3273] cuts =  0 [  93]
  --> max chng: dpmx=   0.0000E+00

== RICHARDS FLOW ===============================================================
  0 2r: 7.22E-18 2x: 0.00E+00 2u: 0.00E+00 ir: 1.76E-18 iu: 0.00E+00 rsn:   0
  1 2r: 7.22E-18 2x: 1.07E+06 2u: 4.39E-11 ir: 1.76E-18 iu: 7.27E-12 rsn: stol
 Step    425 Time=  1.80000E+01 Dt=  2.50000E-01 [hour] snes_conv_reason:    4
  newton =   1 [    3274] linear =     1 [      3274] cuts =  0 [  93]
  --> max chng: dpmx=   0.0000E+00

== RICHARDS FLOW ===============================================================
  0 2r: 7.22E-18 2x: 0.00E+00 2u: 0.00E+00 ir: 1.76E-18 iu: 0.00E+00 rsn:   0
  1 2r: 7.22E-18 2x: 1.07E+06 2u: 4.39E-11 ir: 1.76E-18 iu: 7.27E-12 rsn: stol
 Step    426 Time=  1.82500E+01 Dt=  2.50000E-01 [hour] snes_conv_reason:    4
  newton =   1 [    3275] linear =     1 [      3275] cuts =  0 [  93]
  --> max chng: dpmx=   0.0000E+00

== RICHARDS FLOW ===============================================================
  0 2r: 7.22E-18 2x: 0.00E+00 2u: 0.00E+00 ir: 1.76E-18 iu: 0.00E+00 rsn:   0
  1 2r: 7.22E-18 2x: 1.07E+06 2u: 4.39E-11 ir: 1.76E-18 iu: 7.27E-12 rsn: stol
 Step    427 Time=  1.85000E+01 Dt=  2.50000E-01 [hour] snes_conv_reason:    4
  newton =   1 [    3276] linear =     1 [      3276] cuts =  0 [  93]
  --> max chng: dpmx=   0.0000E+00

== RICHARDS FLOW ===============================================================
  0 2r: 7.22E-18 2x: 0.00E+00 2u: 0.00E+00 ir: 1.76E-18 iu: 0.00E+00 rsn:   0
  1 2r: 7.22E-18 2x: 1.07E+06 2u: 4.39E-11 ir: 1.76E-18 iu: 7.27E-12 rsn: stol
 Step    428 Time=  1.87500E+01 Dt=  2.50000E-01 [hour] snes_conv_reason:    4
  newton =   1 [    3277] linear =     1 [      3277] cuts =  0 [  93]
  --> max chng: dpmx=   0.0000E+00

== RICHARDS FLOW ===============================================================
  0 2r: 7.22E-18 2x: 0.00E+00 2u: 0.00E+00 ir: 1.76E-18 iu: 0.00E+00 rsn:   0
  1 2r: 7.22E-18 2x: 1.07E+06 2u: 4.39E-11 ir: 1.76E-18 iu: 7.27E-12 rsn: stol
 Step    429 Time=  1.90000E+01 Dt=  2.50000E-01 [hour] snes_conv_reason:    4
  newton =   1 [    3278] linear =     1 [      3278] cuts =  0 [  93]
  --> max chng: dpmx=   0.0000E+00

== RICHARDS FLOW ===============================================================
  0 2r: 7.22E-18 2x: 0.00E+00 2u: 0.00E+00 ir: 1.76E-18 iu: 0.00E+00 rsn:   0
  1 2r: 7.22E-18 2x: 1.07E+06 2u: 4.39E-11 ir: 1.76E-18 iu: 7.27E-12 rsn: stol
 Step    430 Time=  1.92500E+01 Dt=  2.50000E-01 [hour] snes_conv_reason:    4
  newton =   1 [    3279] linear =     1 [      3279] cuts =  0 [  93]
  --> max chng: dpmx=   0.0000E+00

== RICHARDS FLOW ===============================================================
  0 2r: 7.22E-18 2x: 0.00E+00 2u: 0.00E+00 ir: 1.76E-18 iu: 0.00E+00 rsn:   0
  1 2r: 7.22E-18 2x: 1.07E+06 2u: 4.39E-11 ir: 1.76E-18 iu: 7.27E-12 rsn: stol
 Step    431 Time=  1.95000E+01 Dt=  2.50000E-01 [hour] snes_conv_reason:    4
  newton =   1 [    3280] linear =     1 [      3280] cuts =  0 [  93]
  --> max chng: dpmx=   0.0000E+00

== RICHARDS FLOW ===============================================================
  0 2r: 7.22E-18 2x: 0.00E+00 2u: 0.00E+00 ir: 1.76E-18 iu: 0.00E+00 rsn:   0
  1 2r: 7.22E-18 2x: 1.07E+06 2u: 4.39E-11 ir: 1.76E-18 iu: 7.27E-12 rsn: stol
 Step    432 Time=  1.97500E+01 Dt=  2.50000E-01 [hour] snes_conv_reason:    4
  newton =   1 [    3281] linear =     1 [      3281] cuts =  0 [  93]
  --> max chng: dpmx=   0.0000E+00

== RICHARDS FLOW ===============================================================
  0 2r: 7.22E-18 2x: 0.00E+00 2u: 0.00E+00 ir: 1.76E-18 iu: 0.00E+00 rsn:   0
  1 2r: 7.22E-18 2x: 1.07E+06 2u: 4.39E-11 ir: 1.76E-18 iu: 7.27E-12 rsn: stol
 Step    433 Time=  2.00000E+01 Dt=  2.50000E-01 [hour] snes_conv_reason:    4
  newton =   1 [    3282] linear =     1 [      3282] cuts =  0 [  93]
  --> max chng: dpmx=   0.0000E+00

== RICHARDS FLOW ===============================================================
  0 2r: 7.22E-18 2x: 0.00E+00 2u: 0.00E+00 ir: 1.76E-18 iu: 0.00E+00 rsn:   0
  1 2r: 7.22E-18 2x: 1.07E+06 2u: 4.39E-11 ir: 1.76E-18 iu: 7.27E-12 rsn: stol
 Step    434 Time=  2.02500E+01 Dt=  2.50000E-01 [hour] snes_conv_reason:    4
  newton =   1 [    3283] linear =     1 [      3283] cuts =  0 [  93]
  --> max chng: dpmx=   0.0000E+00

== RICHARDS FLOW ===============================================================
  0 2r: 7.22E-18 2x: 0.00E+00 2u: 0.00E+00 ir: 1.76E-18 iu: 0.00E+00 rsn:   0
  1 2r: 7.22E-18 2x: 1.07E+06 2u: 4.39E-11 ir: 1.76E-18 iu: 7.27E-12 rsn: stol
 Step    435 Time=  2.05000E+01 Dt=  2.50000E-01 [hour] snes_conv_reason:    4
  newton =   1 [    3284] linear =     1 [      3284] cuts =  0 [  93]
  --> max chng: dpmx=   0.0000E+00

== RICHARDS FLOW ===============================================================
  0 2r: 7.22E-18 2x: 0.00E+00 2u: 0.00E+00 ir: 1.76E-18 iu: 0.00E+00 rsn:   0
  1 2r: 7.22E-18 2x: 1.07E+06 2u: 4.39E-11 ir: 1.76E-18 iu: 7.27E-12 rsn: stol
 Step    436 Time=  2.07500E+01 Dt=  2.50000E-01 [hour] snes_conv_reason:    4
  newton =   1 [    3285] linear =     1 [      3285] cuts =  0 [  93]
  --> max chng: dpmx=   0.0000E+00

== RICHARDS FLOW ===============================================================
  0 2r: 7.22E-18 2x: 0.00E+00 2u: 0.00E+00 ir: 1.76E-18 iu: 0.00E+00 rsn:   0
  1 2r: 7.22E-18 2x: 1.07E+06 2u: 4.39E-11 ir: 1.76E-18 iu: 7.27E-12 rsn: stol
 Step    437 Time=  2.10000E+01 Dt=  2.50000E-01 [hour] snes_conv_reason:    4
  newton =   1 [    3286] linear =     1 [      3286] cuts =  0 [  93]
  --> max chng: dpmx=   0.0000E+00

== RICHARDS FLOW ===============================================================
  0 2r: 7.22E-18 2x: 0.00E+00 2u: 0.00E+00 ir: 1.76E-18 iu: 0.00E+00 rsn:   0
  1 2r: 7.22E-18 2x: 1.07E+06 2u: 4.39E-11 ir: 1.76E-18 iu: 7.27E-12 rsn: stol
 Step    438 Time=  2.12500E+01 Dt=  2.50000E-01 [hour] snes_conv_reason:    4
  newton =   1 [    3287] linear =     1 [      3287] cuts =  0 [  93]
  --> max chng: dpmx=   0.0000E+00

== RICHARDS FLOW ===============================================================
  0 2r: 7.22E-18 2x: 0.00E+00 2u: 0.00E+00 ir: 1.76E-18 iu: 0.00E+00 rsn:   0
  1 2r: 7.22E-18 2x: 1.07E+06 2u: 4.39E-11 ir: 1.76E-18 iu: 7.27E-12 rsn: stol
 Step    439 Time=  2.15000E+01 Dt=  2.50000E-01 [hour] snes_conv_reason:    4
  newton =   1 [    3288] linear =     1 [      3288] cuts =  0 [  93]
  --> max chng: dpmx=   0.0000E+00

== RICHARDS FLOW ===============================================================
  0 2r: 7.22E-18 2x: 0.00E+00 2u: 0.00E+00 ir: 1.76E-18 iu: 0.00E+00 rsn:   0
  1 2r: 7.22E-18 2x: 1.07E+06 2u: 4.39E-11 ir: 1.76E-18 iu: 7.27E-12 rsn: stol
 Step    440 Time=  2.17500E+01 Dt=  2.50000E-01 [hour] snes_conv_reason:    4
  newton =   1 [    3289] linear =     1 [      3289] cuts =  0 [  93]
  --> max chng: dpmx=   0.0000E+00

== RICHARDS FLOW ===============================================================
  0 2r: 7.22E-18 2x: 0.00E+00 2u: 0.00E+00 ir: 1.76E-18 iu: 0.00E+00 rsn:   0
  1 2r: 7.22E-18 2x: 1.07E+06 2u: 4.39E-11 ir: 1.76E-18 iu: 7.27E-12 rsn: stol
 Step    441 Time=  2.20000E+01 Dt=  2.50000E-01 [hour] snes_conv_reason:    4
  newton =   1 [    3290] linear =     1 [      3290] cuts =  0 [  93]
  --> max chng: dpmx=   0.0000E+00

== RICHARDS FLOW ===============================================================
  0 2r: 7.22E-18 2x: 0.00E+00 2u: 0.00E+00 ir: 1.76E-18 iu: 0.00E+00 rsn:   0
  1 2r: 7.22E-18 2x: 1.07E+06 2u: 4.39E-11 ir: 1.76E-18 iu: 7.27E-12 rsn: stol
 Step    442 Time=  2.22500E+01 Dt=  2.50000E-01 [hour] snes_conv_reason:    4
  newton =   1 [    3291] linear =     1 [      3291] cuts =  0 [  93]
  --> max chng: dpmx=   0.0000E+00

== RICHARDS FLOW ===============================================================
  0 2r: 7.22E-18 2x: 0.00E+00 2u: 0.00E+00 ir: 1.76E-18 iu: 0.00E+00 rsn:   0
  1 2r: 7.22E-18 2x: 1.07E+06 2u: 4.39E-11 ir: 1.76E-18 iu: 7.27E-12 rsn: stol
 Step    443 Time=  2.25000E+01 Dt=  2.50000E-01 [hour] snes_conv_reason:    4
  newton =   1 [    3292] linear =     1 [      3292] cuts =  0 [  93]
  --> max chng: dpmx=   0.0000E+00

== RICHARDS FLOW ===============================================================
  0 2r: 7.22E-18 2x: 0.00E+00 2u: 0.00E+00 ir: 1.76E-18 iu: 0.00E+00 rsn:   0
  1 2r: 7.22E-18 2x: 1.07E+06 2u: 4.39E-11 ir: 1.76E-18 iu: 7.27E-12 rsn: stol
 Step    444 Time=  2.27500E+01 Dt=  2.50000E-01 [hour] snes_conv_reason:    4
  newton =   1 [    3293] linear =     1 [      3293] cuts =  0 [  93]
  --> max chng: dpmx=   0.0000E+00

== RICHARDS FLOW ===============================================================
  0 2r: 7.22E-18 2x: 0.00E+00 2u: 0.00E+00 ir: 1.76E-18 iu: 0.00E+00 rsn:   0
  1 2r: 7.22E-18 2x: 1.07E+06 2u: 4.39E-11 ir: 1.76E-18 iu: 7.27E-12 rsn: stol
 Step    445 Time=  2.30000E+01 Dt=  2.50000E-01 [hour] snes_conv_reason:    4
  newton =   1 [    3294] linear =     1 [      3294] cuts =  0 [  93]
  --> max chng: dpmx=   0.0000E+00

== RICHARDS FLOW ===============================================================
  0 2r: 7.22E-18 2x: 0.00E+00 2u: 0.00E+00 ir: 1.76E-18 iu: 0.00E+00 rsn:   0
  1 2r: 7.22E-18 2x: 1.07E+06 2u: 4.39E-11 ir: 1.76E-18 iu: 7.27E-12 rsn: stol
 Step    446 Time=  2.32500E+01 Dt=  2.50000E-01 [hour] snes_conv_reason:    4
  newton =   1 [    3295] linear =     1 [      3295] cuts =  0 [  93]
  --> max chng: dpmx=   0.0000E+00

== RICHARDS FLOW ===============================================================
  0 2r: 7.22E-18 2x: 0.00E+00 2u: 0.00E+00 ir: 1.76E-18 iu: 0.00E+00 rsn:   0
  1 2r: 7.22E-18 2x: 1.07E+06 2u: 4.39E-11 ir: 1.76E-18 iu: 7.27E-12 rsn: stol
 Step    447 Time=  2.35000E+01 Dt=  2.50000E-01 [hour] snes_conv_reason:    4
  newton =   1 [    3296] linear =     1 [      3296] cuts =  0 [  93]
  --> max chng: dpmx=   0.0000E+00

== RICHARDS FLOW ===============================================================
  0 2r: 7.22E-18 2x: 0.00E+00 2u: 0.00E+00 ir: 1.76E-18 iu: 0.00E+00 rsn:   0
  1 2r: 7.22E-18 2x: 1.07E+06 2u: 4.39E-11 ir: 1.76E-18 iu: 7.27E-12 rsn: stol
 Step    448 Time=  2.37500E+01 Dt=  2.50000E-01 [hour] snes_conv_reason:    4
  newton =   1 [    3297] linear =     1 [      3297] cuts =  0 [  93]
  --> max chng: dpmx=   0.0000E+00

== RICHARDS FLOW ===============================================================
  0 2r: 7.22E-18 2x: 0.00E+00 2u: 0.00E+00 ir: 1.76E-18 iu: 0.00E+00 rsn:   0
  1 2r: 7.22E-18 2x: 1.07E+06 2u: 4.39E-11 ir: 1.76E-18 iu: 7.27E-12 rsn: stol
 Step    449 Time=  2.40000E+01 Dt=  2.50000E-01 [hour] snes_conv_reason:    4
  newton =   1 [    3298] linear =     1 [      3298] cuts =  0 [  93]
  --> max chng: dpmx=   0.0000E+00

== RICHARDS FLOW ===============================================================
  0 2r: 7.22E-18 2x: 0.00E+00 2u: 0.00E+00 ir: 1.76E-18 iu: 0.00E+00 rsn:   0
  1 2r: 7.22E-18 2x: 1.07E+06 2u: 4.39E-11 ir: 1.76E-18 iu: 7.27E-12 rsn: stol
 Step    450 Time=  2.42500E+01 Dt=  2.50000E-01 [hour] snes_conv_reason:    4
  newton =   1 [    3299] linear =     1 [      3299] cuts =  0 [  93]
  --> max chng: dpmx=   0.0000E+00

== RICHARDS FLOW ===============================================================
  0 2r: 7.22E-18 2x: 0.00E+00 2u: 0.00E+00 ir: 1.76E-18 iu: 0.00E+00 rsn:   0
  1 2r: 7.22E-18 2x: 1.07E+06 2u: 4.39E-11 ir: 1.76E-18 iu: 7.27E-12 rsn: stol
 Step    451 Time=  2.45000E+01 Dt=  2.50000E-01 [hour] snes_conv_reason:    4
  newton =   1 [    3300] linear =     1 [      3300] cuts =  0 [  93]
  --> max chng: dpmx=   0.0000E+00

== RICHARDS FLOW ===============================================================
  0 2r: 7.22E-18 2x: 0.00E+00 2u: 0.00E+00 ir: 1.76E-18 iu: 0.00E+00 rsn:   0
  1 2r: 7.22E-18 2x: 1.07E+06 2u: 4.39E-11 ir: 1.76E-18 iu: 7.27E-12 rsn: stol
 Step    452 Time=  2.47500E+01 Dt=  2.50000E-01 [hour] snes_conv_reason:    4
  newton =   1 [    3301] linear =     1 [      3301] cuts =  0 [  93]
  --> max chng: dpmx=   0.0000E+00

== RICHARDS FLOW ===============================================================
  0 2r: 7.22E-18 2x: 0.00E+00 2u: 0.00E+00 ir: 1.76E-18 iu: 0.00E+00 rsn:   0
  1 2r: 7.22E-18 2x: 1.07E+06 2u: 4.39E-11 ir: 1.76E-18 iu: 7.27E-12 rsn: stol
 Step    453 Time=  2.50000E+01 Dt=  2.50000E-01 [hour] snes_conv_reason:    4
  newton =   1 [    3302] linear =     1 [      3302] cuts =  0 [  93]
  --> max chng: dpmx=   0.0000E+00

 Wall Clock Time:  1.4409E+00 [sec]   2.4015E-02 [min]   4.0025E-04 [hr]
