
=================
  PFLOTRAN v4.0
=================

 Extent of Gridded Domain
  X: 0.0000000000000000 - 0.20000000000000001
  Y: 0.0000000000000000 - 0.20000000000000001
  Z: 0.0000000000000000 - 1.0000000000000000


=+=+=+=+=+=+=+=+=+=+=+=+=+=+=+=+=+=+=+=+=+=+=+=+=+=+=+=+=+=+=+=+=+=+=+=+=+=+=+=+

  Initial Condition

--------------------------------------------------------------------------------
          Flow Condition:   initial
                  Region:   all
--------------------------------------------------------------------------------

  Flow Condition: initial
    Synchronize time with update: no
    Time units: yr
    Length units: m
      Datum:

    Sub Condition: pressure
      Type: dirichlet
      Gradient:
      Data:
        Dataset: Unnamed Ascii Dataset
          Type: dataset_ascii_type
          Transient: no
          Array Rank:  1

--------------------------------------------------------------------------------

=+=+=+=+=+=+=+=+=+=+=+=+=+=+=+=+=+=+=+=+=+=+=+=+=+=+=+=+=+=+=+=+=+=+=+=+=+=+=+=+

  Boundary Condition

--------------------------------------------------------------------------------
          Flow Condition:   top_bc
                  Region:   top
--------------------------------------------------------------------------------

  Flow Condition: top_bc
    Synchronize time with update: no
    Time units: yr
    Length units: m
      Datum:

    Sub Condition: pressure
      Type: dirichlet
      Gradient:
      Data:
        Dataset: Unnamed Ascii Dataset
          Type: dataset_ascii_type
          Transient: no
          Array Rank:  1

--------------------------------------------------------------------------------

 Requested processors and decomposition =     1, npx,y,z=   -1  -1  -1
 Actual decomposition: npx,y,z=    1   1   1


FLOW Time Stepper
acceleration: on
acceleration threshold: 5
number of ramp entries: 5
ramp entry #1: 2.0000
ramp entry #2: 2.0000
ramp entry #3: 2.0000
ramp entry #4: 2.0000
ramp entry #5: 2.0000
ramp entry #6: 1.8000
ramp entry #7: 1.6000
ramp entry #8: 1.4000
ramp entry #9: 1.2000
ramp entry #10: 1.0000
ramp entry #11: 1.0000
ramp entry #12: 1.0000
ramp entry #13: 1.0000
maximum number of steps: 999999
constant time steps threshold: 5
maximum number of cuts: 16
reduction factor: 5.000000E-01
maximum growth factor: 2.000000E+00

FLOW Newton Solver
atol: 1.000000E-50
rtol: 1.000000E-08
stol: 1.000000E-08
dtol: 1.000000E+04
maxnorm: 1.000000E+20
inftolres: -9.990000E+02
inftolupd: -9.990000E+02
inftolrelupd: -9.990000E+02
inftolsclres: -9.990000E+02
max iter: 50
min iter: 1
maxf: 10000
matrix type: baij
precond. matrix type: baij
inexact newton: off
print convergence: on
print detailed convergence: off
check infinity norm: on

FLOW Linear Solver
solver: bcgs
preconditioner: ilu
atol: 1.000000E-50
rtol: 1.000000E-05
dtol: 1.000000E+04
maximum iteration: 10000

== RICHARDS FLOW ===============================================================
  0 2r: 1.47E-03 2x: 0.00E+00 2u: 0.00E+00 ir: 1.47E-03 iu: 0.00E+00 rsn:   0
  1 2r: 9.27E-04 2x: 9.21E+05 2u: 9.97E+03 ir: 6.60E-04 iu: 9.90E+03 rsn:   0
  2 2r: 6.49E-04 2x: 9.22E+05 2u: 8.80E+03 ir: 4.64E-04 iu: 8.57E+03 rsn:   0
  3 2r: 2.86E-04 2x: 9.22E+05 2u: 1.98E+03 ir: 2.03E-04 iu: 1.77E+03 rsn:   0
  4 2r: 6.03E-05 2x: 9.23E+05 2u: 4.38E+03 ir: 4.72E-05 iu: 3.30E+03 rsn:   0
  5 2r: 1.49E-05 2x: 9.24E+05 2u: 3.49E+03 ir: 1.06E-05 iu: 2.57E+03 rsn:   0
  6 2r: 6.40E-07 2x: 9.24E+05 2u: 5.46E+02 ir: 5.35E-07 iu: 4.69E+02 rsn:   0
  7 2r: 3.51E-09 2x: 9.24E+05 2u: 8.38E+01 ir: 2.40E-09 iu: 7.00E+01 rsn:   0
  8 2r: 1.64E-13 2x: 9.24E+05 2u: 7.06E-01 ir: 1.37E-13 iu: 5.31E-01 rsn: rtol
 Step      1 Time=  8.33333E-02 Dt=  8.33333E-02 [hour] snes_conv_reason:    3
  newton =   8 [       8] linear =     8 [         8] cuts =  0 [   0]
  --> max chng: dpmx=   9.6124E+03

== RICHARDS FLOW ===============================================================
  0 2r: 2.42E-05 2x: 0.00E+00 2u: 0.00E+00 ir: 1.51E-05 iu: 0.00E+00 rsn:   0
  1 2r: 9.54E-05 2x: 9.25E+05 2u: 7.89E+03 ir: 6.72E-05 iu: 5.49E+03 rsn:   0
  2 2r: 3.84E-05 2x: 9.25E+05 2u: 2.47E+03 ir: 2.82E-05 iu: 1.73E+03 rsn:   0
  3 2r: 9.83E-06 2x: 9.25E+05 2u: 2.79E+03 ir: 7.00E-06 iu: 2.31E+03 rsn:   0
  4 2r: 1.34E-06 2x: 9.25E+05 2u: 6.23E+02 ir: 1.05E-06 iu: 4.32E+02 rsn:   0
  5 2r: 4.01E-08 2x: 9.25E+05 2u: 1.32E+02 ir: 3.08E-08 iu: 1.02E+02 rsn:   0
  6 2r: 3.12E-11 2x: 9.25E+05 2u: 2.89E+00 ir: 2.49E-11 iu: 1.69E+00 rsn:   0
  7 2r: 2.20E-17 2x: 9.25E+05 2u: 2.88E-03 ir: 1.70E-17 iu: 2.09E-03 rsn: rtol
 Step      2 Time=  1.66667E-01 Dt=  8.33333E-02 [hour] snes_conv_reason:    3
  newton =   7 [      15] linear =     7 [        15] cuts =  0 [   0]
  --> max chng: dpmx=   4.0550E+03

== RICHARDS FLOW ===============================================================
  0 2r: 1.02E-05 2x: 0.00E+00 2u: 0.00E+00 ir: 6.06E-06 iu: 0.00E+00 rsn:   0
  1 2r: 1.83E-05 2x: 9.27E+05 2u: 6.05E+03 ir: 1.61E-05 iu: 4.22E+03 rsn:   0
  2 2r: 5.52E-06 2x: 9.26E+05 2u: 1.23E+03 ir: 4.76E-06 iu: 8.76E+02 rsn:   0
  3 2r: 5.27E-07 2x: 9.26E+05 2u: 8.61E+02 ir: 4.64E-07 iu: 7.50E+02 rsn:   0
  4 2r: 6.88E-09 2x: 9.26E+05 2u: 6.12E+01 ir: 5.42E-09 iu: 5.23E+01 rsn:   0
  5 2r: 8.74E-13 2x: 9.26E+05 2u: 4.30E-01 ir: 6.81E-13 iu: 2.52E-01 rsn:   0
  6 2r: 1.36E-18 2x: 9.26E+05 2u: 6.53E-05 ir: 1.29E-18 iu: 3.55E-05 rsn: rtol
 Step      3 Time=  2.50000E-01 Dt=  8.33333E-02 [hour] snes_conv_reason:    3
  newton =   6 [      21] linear =     6 [        21] cuts =  0 [   0]
  --> max chng: dpmx=   3.1925E+03

== RICHARDS FLOW ===============================================================
  0 2r: 7.58E-06 2x: 0.00E+00 2u: 0.00E+00 ir: 4.44E-06 iu: 0.00E+00 rsn:   0
  1 2r: 7.72E-06 2x: 9.28E+05 2u: 4.87E+03 ir: 5.32E-06 iu: 3.37E+03 rsn:   0
  2 2r: 1.71E-06 2x: 9.27E+05 2u: 8.69E+02 ir: 1.19E-06 iu: 6.51E+02 rsn:   0
  3 2r: 7.53E-08 2x: 9.27E+05 2u: 2.98E+02 ir: 6.02E-08 iu: 2.26E+02 rsn:   0
  4 2r: 2.52E-10 2x: 9.27E+05 2u: 1.42E+01 ir: 2.00E-10 iu: 8.91E+00 rsn:   0
  5 2r: 2.05E-15 2x: 9.27E+05 2u: 3.59E-02 ir: 1.67E-15 iu: 2.44E-02 rsn: rtol
 Step      4 Time=  3.33333E-01 Dt=  8.33333E-02 [hour] snes_conv_reason:    3
  newton =   5 [      26] linear =     5 [        26] cuts =  0 [   0]
  --> max chng: dpmx=   2.5733E+03

== RICHARDS FLOW ===============================================================
  0 2r: 6.27E-06 2x: 0.00E+00 2u: 0.00E+00 ir: 3.60E-06 iu: 0.00E+00 rsn:   0
  1 2r: 4.62E-06 2x: 9.28E+05 2u: 4.23E+03 ir: 2.98E-06 iu: 2.84E+03 rsn:   0
  2 2r: 8.22E-07 2x: 9.28E+05 2u: 6.95E+02 ir: 5.56E-07 iu: 5.25E+02 rsn:   0
  3 2r: 2.26E-08 2x: 9.28E+05 2u: 1.49E+02 ir: 1.85E-08 iu: 1.06E+02 rsn:   0
  4 2r: 2.14E-11 2x: 9.28E+05 2u: 4.10E+00 ir: 1.72E-11 iu: 2.62E+00 rsn:   0
  5 2r: 1.58E-17 2x: 9.28E+05 2u: 3.33E-03 ir: 1.28E-17 iu: 2.21E-03 rsn: rtol
 Step      5 Time=  4.16667E-01 Dt=  8.33333E-02 [hour] snes_conv_reason:    3
  newton =   5 [      31] linear =     5 [        31] cuts =  0 [   0]
  --> max chng: dpmx=   2.2354E+03

== RICHARDS FLOW ===============================================================
  0 2r: 5.49E-06 2x: 0.00E+00 2u: 0.00E+00 ir: 3.14E-06 iu: 0.00E+00 rsn:   0
  1 2r: 3.11E-06 2x: 9.29E+05 2u: 3.80E+03 ir: 2.14E-06 iu: 2.54E+03 rsn:   0
  2 2r: 4.26E-07 2x: 9.29E+05 2u: 5.73E+02 ir: 2.86E-07 iu: 4.35E+02 rsn:   0
  3 2r: 6.50E-09 2x: 9.29E+05 2u: 8.84E+01 ir: 5.34E-09 iu: 6.37E+01 rsn:   0
  4 2r: 1.98E-12 2x: 9.29E+05 2u: 1.35E+00 ir: 1.60E-12 iu: 8.91E-01 rsn:   0
  5 2r: 2.38E-18 2x: 9.29E+05 2u: 3.47E-04 ir: 1.65E-18 iu: 2.37E-04 rsn: rtol
 Step      6 Time=  5.00000E-01 Dt=  8.33333E-02 [hour] snes_conv_reason:    3
  newton =   5 [      36] linear =     5 [        36] cuts =  0 [   0]
  --> max chng: dpmx=   2.0555E+03

== RICHARDS FLOW ===============================================================
  0 2r: 4.98E-06 2x: 0.00E+00 2u: 0.00E+00 ir: 2.78E-06 iu: 0.00E+00 rsn:   0
  1 2r: 2.28E-06 2x: 9.30E+05 2u: 3.50E+03 ir: 1.75E-06 iu: 2.35E+03 rsn:   0
  2 2r: 2.36E-07 2x: 9.30E+05 2u: 4.94E+02 ir: 1.52E-07 iu: 3.65E+02 rsn:   0
  3 2r: 1.66E-09 2x: 9.30E+05 2u: 5.80E+01 ir: 1.26E-09 iu: 4.35E+01 rsn:   0
  4 2r: 1.59E-13 2x: 9.30E+05 2u: 4.53E-01 ir: 1.28E-13 iu: 2.94E-01 rsn:   0
  5 2r: 1.39E-18 2x: 9.30E+05 2u: 3.29E-05 ir: 8.00E-19 iu: 2.32E-05 rsn: rtol
 Step      7 Time=  5.83333E-01 Dt=  8.33333E-02 [hour] snes_conv_reason:    3
  newton =   5 [      41] linear =     5 [        41] cuts =  0 [   0]
  --> max chng: dpmx=   1.9546E+03

== RICHARDS FLOW ===============================================================
  0 2r: 4.62E-06 2x: 0.00E+00 2u: 0.00E+00 ir: 2.55E-06 iu: 0.00E+00 rsn:   0
  1 2r: 1.78E-06 2x: 9.31E+05 2u: 3.26E+03 ir: 1.48E-06 iu: 2.18E+03 rsn:   0
  2 2r: 1.50E-07 2x: 9.31E+05 2u: 4.39E+02 ir: 1.29E-07 iu: 2.97E+02 rsn:   0
  3 2r: 6.38E-10 2x: 9.31E+05 2u: 3.73E+01 ir: 5.97E-10 iu: 2.86E+01 rsn:   0
  4 2r: 1.43E-14 2x: 9.31E+05 2u: 1.19E-01 ir: 1.21E-14 iu: 7.76E-02 rsn: rtol
 Step      8 Time=  6.66667E-01 Dt=  8.33333E-02 [hour] snes_conv_reason:    3
  newton =   4 [      45] linear =     4 [        45] cuts =  0 [   0]
  --> max chng: dpmx=   1.8704E+03

== RICHARDS FLOW ===============================================================
  0 2r: 4.31E-06 2x: 0.00E+00 2u: 0.00E+00 ir: 2.41E-06 iu: 0.00E+00 rsn:   0
  1 2r: 1.48E-06 2x: 9.31E+05 2u: 3.06E+03 ir: 1.22E-06 iu: 1.98E+03 rsn:   0
  2 2r: 1.22E-07 2x: 9.31E+05 2u: 3.91E+02 ir: 1.10E-07 iu: 2.61E+02 rsn:   0
  3 2r: 7.19E-10 2x: 9.31E+05 2u: 2.35E+01 ir: 5.75E-10 iu: 1.62E+01 rsn:   0
  4 2r: 1.63E-14 2x: 9.31E+05 2u: 9.27E-02 ir: 1.32E-14 iu: 6.65E-02 rsn: rtol
 Step      9 Time=  7.50000E-01 Dt=  8.33333E-02 [hour] snes_conv_reason:    3
  newton =   4 [      49] linear =     4 [        49] cuts =  0 [   0]
  --> max chng: dpmx=   1.7670E+03

== RICHARDS FLOW ===============================================================
  0 2r: 4.07E-06 2x: 0.00E+00 2u: 0.00E+00 ir: 2.28E-06 iu: 0.00E+00 rsn:   0
  1 2r: 1.27E-06 2x: 9.32E+05 2u: 2.91E+03 ir: 9.06E-07 iu: 1.76E+03 rsn:   0
  2 2r: 1.02E-07 2x: 9.32E+05 2u: 3.46E+02 ir: 7.99E-08 iu: 2.56E+02 rsn:   0
  3 2r: 5.13E-10 2x: 9.32E+05 2u: 1.99E+01 ir: 4.15E-10 iu: 1.45E+01 rsn:   0
  4 2r: 1.02E-14 2x: 9.32E+05 2u: 9.29E-02 ir: 8.34E-15 iu: 6.33E-02 rsn: rtol
 Step     10 Time=  8.33333E-01 Dt=  8.33333E-02 [hour] snes_conv_reason:    3
  newton =   4 [      53] linear =     4 [        53] cuts =  0 [   0]
  --> max chng: dpmx=   1.6109E+03

== RICHARDS FLOW ===============================================================
  0 2r: 3.88E-06 2x: 0.00E+00 2u: 0.00E+00 ir: 2.14E-06 iu: 0.00E+00 rsn:   0
  1 2r: 1.11E-06 2x: 9.33E+05 2u: 2.78E+03 ir: 7.87E-07 iu: 1.79E+03 rsn:   0
  2 2r: 6.87E-08 2x: 9.33E+05 2u: 3.12E+02 ir: 4.39E-08 iu: 2.36E+02 rsn:   0
  3 2r: 1.97E-10 2x: 9.33E+05 2u: 1.83E+01 ir: 1.62E-10 iu: 1.25E+01 rsn:   0
  4 2r: 2.20E-15 2x: 9.33E+05 2u: 5.27E-02 ir: 1.80E-15 iu: 3.71E-02 rsn: rtol
 Step     11 Time=  9.16667E-01 Dt=  8.33333E-02 [hour] snes_conv_reason:    3
  newton =   4 [      57] linear =     4 [        57] cuts =  0 [   0]
  --> max chng: dpmx=   1.5442E+03

== RICHARDS FLOW ===============================================================
  0 2r: 3.73E-06 2x: 0.00E+00 2u: 0.00E+00 ir: 1.98E-06 iu: 0.00E+00 rsn:   0
  1 2r: 9.45E-07 2x: 9.33E+05 2u: 2.68E+03 ir: 7.69E-07 iu: 1.74E+03 rsn:   0
  2 2r: 4.93E-08 2x: 9.33E+05 2u: 2.95E+02 ir: 4.44E-08 iu: 1.92E+02 rsn:   0
  3 2r: 9.73E-11 2x: 9.33E+05 2u: 1.31E+01 ir: 8.81E-11 iu: 9.52E+00 rsn:   0
  4 2r: 3.78E-16 2x: 9.33E+05 2u: 1.49E-02 ir: 2.99E-16 iu: 1.17E-02 rsn: rtol
 Step     12 Time=  1.00000E+00 Dt=  8.33333E-02 [hour] snes_conv_reason:    3
  newton =   4 [      61] linear =     4 [        61] cuts =  0 [   0]
  --> max chng: dpmx=   1.5426E+03

== RICHARDS FLOW ===============================================================
  0 2r: 3.59E-06 2x: 0.00E+00 2u: 0.00E+00 ir: 1.96E-06 iu: 0.00E+00 rsn:   0
  1 2r: 8.62E-07 2x: 9.34E+05 2u: 2.58E+03 ir: 6.44E-07 iu: 1.56E+03 rsn:   0
  2 2r: 4.95E-08 2x: 9.34E+05 2u: 2.72E+02 ir: 4.11E-08 iu: 1.96E+02 rsn:   0
  3 2r: 1.36E-10 2x: 9.34E+05 2u: 1.02E+01 ir: 1.09E-10 iu: 7.91E+00 rsn:   0
  4 2r: 6.97E-16 2x: 9.34E+05 2u: 2.42E-02 ir: 5.74E-16 iu: 1.69E-02 rsn: rtol
 Step     13 Time=  1.08333E+00 Dt=  8.33333E-02 [hour] snes_conv_reason:    3
  newton =   4 [      65] linear =     4 [        65] cuts =  0 [   0]
  --> max chng: dpmx=   1.4527E+03

== RICHARDS FLOW ===============================================================
  0 2r: 3.47E-06 2x: 0.00E+00 2u: 0.00E+00 ir: 1.88E-06 iu: 0.00E+00 rsn:   0
  1 2r: 7.91E-07 2x: 9.35E+05 2u: 2.50E+03 ir: 5.57E-07 iu: 1.58E+03 rsn:   0
  2 2r: 3.82E-08 2x: 9.35E+05 2u: 2.51E+02 ir: 2.40E-08 iu: 1.90E+02 rsn:   0
  3 2r: 6.66E-11 2x: 9.35E+05 2u: 1.06E+01 ir: 5.46E-11 iu: 6.91E+00 rsn:   0
  4 2r: 2.53E-16 2x: 9.35E+05 2u: 1.83E-02 ir: 2.08E-16 iu: 1.31E-02 rsn: rtol
 Step     14 Time=  1.16667E+00 Dt=  8.33333E-02 [hour] snes_conv_reason:    3
  newton =   4 [      69] linear =     4 [        69] cuts =  0 [   0]
  --> max chng: dpmx=   1.3824E+03

== RICHARDS FLOW ===============================================================
  0 2r: 3.38E-06 2x: 0.00E+00 2u: 0.00E+00 ir: 1.77E-06 iu: 0.00E+00 rsn:   0
  1 2r: 7.34E-07 2x: 9.35E+05 2u: 2.44E+03 ir: 5.64E-07 iu: 1.56E+03 rsn:   0
  2 2r: 2.91E-08 2x: 9.35E+05 2u: 2.42E+02 ir: 2.65E-08 iu: 1.54E+02 rsn:   0
  3 2r: 4.00E-11 2x: 9.35E+05 2u: 7.98E+00 ir: 3.54E-11 iu: 5.57E+00 rsn:   0
  4 2r: 6.50E-17 2x: 9.35E+05 2u: 5.97E-03 ir: 5.11E-17 iu: 5.01E-03 rsn: rtol
 Step     15 Time=  1.25000E+00 Dt=  8.33333E-02 [hour] snes_conv_reason:    3
  newton =   4 [      73] linear =     4 [        73] cuts =  0 [   0]
  --> max chng: dpmx=   1.4000E+03

== RICHARDS FLOW ===============================================================
  0 2r: 3.29E-06 2x: 0.00E+00 2u: 0.00E+00 ir: 1.76E-06 iu: 0.00E+00 rsn:   0
  1 2r: 6.63E-07 2x: 9.36E+05 2u: 2.38E+03 ir: 4.64E-07 iu: 1.40E+03 rsn:   0
  2 2r: 3.05E-08 2x: 9.36E+05 2u: 2.27E+02 ir: 2.41E-08 iu: 1.66E+02 rsn:   0
  3 2r: 5.39E-11 2x: 9.36E+05 2u: 6.97E+00 ir: 4.37E-11 iu: 5.40E+00 rsn:   0
  4 2r: 1.22E-16 2x: 9.36E+05 2u: 1.10E-02 ir: 1.01E-16 iu: 7.82E-03 rsn: rtol
 Step     16 Time=  1.33333E+00 Dt=  8.33333E-02 [hour] snes_conv_reason:    3
  newton =   4 [      77] linear =     4 [        77] cuts =  0 [   0]
  --> max chng: dpmx=   1.3065E+03

== RICHARDS FLOW ===============================================================
  0 2r: 3.22E-06 2x: 0.00E+00 2u: 0.00E+00 ir: 1.70E-06 iu: 0.00E+00 rsn:   0
  1 2r: 6.18E-07 2x: 9.37E+05 2u: 2.32E+03 ir: 4.61E-07 iu: 1.47E+03 rsn:   0
  2 2r: 2.28E-08 2x: 9.37E+05 2u: 2.15E+02 ir: 1.53E-08 iu: 1.57E+02 rsn:   0
  3 2r: 1.88E-11 2x: 9.37E+05 2u: 7.12E+00 ir: 1.30E-11 iu: 4.81E+00 rsn:   0
  4 2r: 2.15E-17 2x: 9.37E+05 2u: 6.34E-03 ir: 1.75E-17 iu: 4.37E-03 rsn: rtol
 Step     17 Time=  1.41667E+00 Dt=  8.33333E-02 [hour] snes_conv_reason:    3
  newton =   4 [      81] linear =     4 [        81] cuts =  0 [   0]
  --> max chng: dpmx=   1.3059E+03

== RICHARDS FLOW ===============================================================
  0 2r: 3.15E-06 2x: 0.00E+00 2u: 0.00E+00 ir: 1.65E-06 iu: 0.00E+00 rsn:   0
  1 2r: 5.85E-07 2x: 9.37E+05 2u: 2.28E+03 ir: 4.43E-07 iu: 1.41E+03 rsn:   0
  2 2r: 2.13E-08 2x: 9.37E+05 2u: 2.08E+02 ir: 1.91E-08 iu: 1.41E+02 rsn:   0
  3 2r: 2.77E-11 2x: 9.37E+05 2u: 5.15E+00 ir: 2.26E-11 iu: 3.87E+00 rsn:   0
  4 2r: 2.91E-17 2x: 9.37E+05 2u: 4.59E-03 ir: 2.37E-17 iu: 3.48E-03 rsn: rtol
 Step     18 Time=  1.50000E+00 Dt=  8.33333E-02 [hour] snes_conv_reason:    3
  newton =   4 [      85] linear =     4 [        85] cuts =  0 [   0]
  --> max chng: dpmx=   1.2944E+03

== RICHARDS FLOW ===============================================================
  0 2r: 3.09E-06 2x: 0.00E+00 2u: 0.00E+00 ir: 1.64E-06 iu: 0.00E+00 rsn:   0
  1 2r: 5.50E-07 2x: 9.38E+05 2u: 2.23E+03 ir: 3.76E-07 iu: 1.36E+03 rsn:   0
  2 2r: 2.05E-08 2x: 9.38E+05 2u: 1.97E+02 ir: 1.34E-08 iu: 1.48E+02 rsn:   0
  3 2r: 2.22E-11 2x: 9.38E+05 2u: 5.68E+00 ir: 1.82E-11 iu: 3.95E+00 rsn:   0
  4 2r: 2.63E-17 2x: 9.38E+05 2u: 5.84E-03 ir: 2.18E-17 iu: 4.25E-03 rsn: rtol
 Step     19 Time=  1.58333E+00 Dt=  8.33333E-02 [hour] snes_conv_reason:    3
  newton =   4 [      89] linear =     4 [        89] cuts =  0 [   0]
  --> max chng: dpmx=   1.2097E+03

== RICHARDS FLOW ===============================================================
  0 2r: 3.04E-06 2x: 0.00E+00 2u: 0.00E+00 ir: 1.55E-06 iu: 0.00E+00 rsn:   0
  1 2r: 5.17E-07 2x: 9.38E+05 2u: 2.20E+03 ir: 4.01E-07 iu: 1.38E+03 rsn:   0
  2 2r: 1.58E-08 2x: 9.38E+05 2u: 1.93E+02 ir: 1.42E-08 iu: 1.24E+02 rsn:   0
  3 2r: 1.16E-11 2x: 9.38E+05 2u: 4.75E+00 ir: 1.06E-11 iu: 3.23E+00 rsn:   0
  4 2r: 6.99E-18 2x: 9.38E+05 2u: 2.00E-03 ir: 4.66E-18 iu: 1.66E-03 rsn: rtol
 Step     20 Time=  1.66667E+00 Dt=  8.33333E-02 [hour] snes_conv_reason:    3
  newton =   4 [      93] linear =     4 [        93] cuts =  0 [   0]
  --> max chng: dpmx=   1.2527E+03

== RICHARDS FLOW ===============================================================
  0 2r: 2.99E-06 2x: 0.00E+00 2u: 0.00E+00 ir: 1.57E-06 iu: 0.00E+00 rsn:   0
  1 2r: 5.23E-07 2x: 9.39E+05 2u: 2.16E+03 ir: 3.35E-07 iu: 1.26E+03 rsn:   0
  2 2r: 1.73E-08 2x: 9.39E+05 2u: 1.84E+02 ir: 1.34E-08 iu: 1.35E+02 rsn:   0
  3 2r: 1.82E-11 2x: 9.39E+05 2u: 4.30E+00 ir: 1.48E-11 iu: 3.36E+00 rsn:   0
  4 2r: 1.50E-17 2x: 9.39E+05 2u: 4.04E-03 ir: 1.23E-17 iu: 2.91E-03 rsn: rtol
 Step     21 Time=  1.75000E+00 Dt=  8.33333E-02 [hour] snes_conv_reason:    3
  newton =   4 [      97] linear =     4 [        97] cuts =  0 [   0]
  --> max chng: dpmx=   1.1738E+03

== RICHARDS FLOW ===============================================================
  0 2r: 2.95E-06 2x: 0.00E+00 2u: 0.00E+00 ir: 1.52E-06 iu: 0.00E+00 rsn:   0
  1 2r: 4.73E-07 2x: 9.39E+05 2u: 2.13E+03 ir: 3.57E-07 iu: 1.33E+03 rsn:   0
  2 2r: 1.35E-08 2x: 9.39E+05 2u: 1.79E+02 ir: 1.03E-08 iu: 1.27E+02 rsn:   0
  3 2r: 6.15E-12 2x: 9.39E+05 2u: 4.44E+00 ir: 4.71E-12 iu: 2.97E+00 rsn:   0
  4 2r: 2.58E-18 2x: 9.39E+05 2u: 2.07E-03 ir: 1.18E-18 iu: 1.27E-03 rsn: rtol
 Step     22 Time=  1.83333E+00 Dt=  8.33333E-02 [hour] snes_conv_reason:    3
  newton =   4 [     101] linear =     4 [       101] cuts =  0 [   0]
  --> max chng: dpmx=   1.2021E+03

== RICHARDS FLOW ===============================================================
  0 2r: 2.91E-06 2x: 0.00E+00 2u: 0.00E+00 ir: 1.51E-06 iu: 0.00E+00 rsn:   0
  1 2r: 4.57E-07 2x: 9.40E+05 2u: 2.10E+03 ir: 3.31E-07 iu: 1.25E+03 rsn:   0
  2 2r: 1.41E-08 2x: 9.40E+05 2u: 1.75E+02 ir: 1.20E-08 iu: 1.23E+02 rsn:   0
  3 2r: 1.31E-11 2x: 9.40E+05 2u: 3.49E+00 ir: 1.06E-11 iu: 2.80E+00 rsn:   0
  4 2r: 7.68E-18 2x: 9.40E+05 2u: 2.57E-03 ir: 5.78E-18 iu: 1.88E-03 rsn: rtol
 Step     23 Time=  1.91667E+00 Dt=  8.33333E-02 [hour] snes_conv_reason:    3
  newton =   4 [     105] linear =     4 [       105] cuts =  0 [   0]
  --> max chng: dpmx=   1.1729E+03

== RICHARDS FLOW ===============================================================
  0 2r: 2.88E-06 2x: 0.00E+00 2u: 0.00E+00 ir: 1.49E-06 iu: 0.00E+00 rsn:   0
  1 2r: 4.52E-07 2x: 9.40E+05 2u: 2.08E+03 ir: 3.18E-07 iu: 1.28E+03 rsn:   0
  2 2r: 1.24E-08 2x: 9.40E+05 2u: 1.69E+02 ir: 7.61E-09 iu: 1.24E+02 rsn:   0
  3 2r: 6.65E-12 2x: 9.40E+05 2u: 3.97E+00 ir: 5.07E-12 iu: 2.50E+00 rsn:   0
  4 2r: 3.74E-18 2x: 9.40E+05 2u: 2.20E-03 ir: 2.34E-18 iu: 1.58E-03 rsn: rtol
 Step     24 Time=  2.00000E+00 Dt=  8.33333E-02 [hour] snes_conv_reason:    3
  newton =   4 [     109] linear =     4 [       109] cuts =  0 [   0]
  --> max chng: dpmx=   1.1513E+03

== RICHARDS FLOW ===============================================================
  0 2r: 2.85E-06 2x: 0.00E+00 2u: 0.00E+00 ir: 1.45E-06 iu: 0.00E+00 rsn:   0
  1 2r: 4.22E-07 2x: 9.41E+05 2u: 2.06E+03 ir: 3.18E-07 iu: 1.25E+03 rsn:   0
  2 2r: 1.16E-08 2x: 9.41E+05 2u: 1.67E+02 ir: 1.04E-08 iu: 1.13E+02 rsn:   0
  3 2r: 8.81E-12 2x: 9.41E+05 2u: 3.10E+00 ir: 7.25E-12 iu: 2.34E+00 rsn:   0
  4 2r: 4.35E-18 2x: 9.41E+05 2u: 1.54E-03 ir: 2.60E-18 iu: 1.21E-03 rsn: rtol
 Step     25 Time=  2.08333E+00 Dt=  8.33333E-02 [hour] snes_conv_reason:    3
  newton =   4 [     113] linear =     4 [       113] cuts =  0 [   0]
  --> max chng: dpmx=   1.1596E+03

== RICHARDS FLOW ===============================================================
  0 2r: 2.82E-06 2x: 0.00E+00 2u: 0.00E+00 ir: 1.46E-06 iu: 0.00E+00 rsn:   0
  1 2r: 4.20E-07 2x: 9.42E+05 2u: 2.04E+03 ir: 2.87E-07 iu: 1.23E+03 rsn:   0
  2 2r: 1.16E-08 2x: 9.42E+05 2u: 1.61E+02 ir: 7.12E-09 iu: 1.19E+02 rsn:   0
  3 2r: 7.03E-12 2x: 9.42E+05 2u: 3.49E+00 ir: 5.71E-12 iu: 2.41E+00 rsn:   0
  4 2r: 3.51E-18 2x: 9.42E+05 2u: 2.04E-03 ir: 2.40E-18 iu: 1.50E-03 rsn: rtol
 Step     26 Time=  2.16667E+00 Dt=  8.33333E-02 [hour] snes_conv_reason:    3
  newton =   4 [     117] linear =     4 [       117] cuts =  0 [   0]
  --> max chng: dpmx=   1.1047E+03

== RICHARDS FLOW ===============================================================
  0 2r: 2.79E-06 2x: 0.00E+00 2u: 0.00E+00 ir: 1.41E-06 iu: 0.00E+00 rsn:   0
  1 2r: 3.98E-07 2x: 9.42E+05 2u: 2.02E+03 ir: 3.02E-07 iu: 1.24E+03 rsn:   0
  2 2r: 9.81E-09 2x: 9.42E+05 2u: 1.60E+02 ir: 8.95E-09 iu: 1.04E+02 rsn:   0
  3 2r: 5.71E-12 2x: 9.42E+05 2u: 2.92E+00 ir: 4.94E-12 iu: 1.98E+00 rsn:   0
  4 2r: 3.48E-18 2x: 9.42E+05 2u: 9.48E-04 ir: 1.31E-18 iu: 8.19E-04 rsn: rtol
 Step     27 Time=  2.25000E+00 Dt=  8.33333E-02 [hour] snes_conv_reason:    3
  newton =   4 [     121] linear =     4 [       121] cuts =  0 [   0]
  --> max chng: dpmx=   1.1403E+03

== RICHARDS FLOW ===============================================================
  0 2r: 2.77E-06 2x: 0.00E+00 2u: 0.00E+00 ir: 1.43E-06 iu: 0.00E+00 rsn:   0
  1 2r: 3.92E-07 2x: 9.43E+05 2u: 2.00E+03 ir: 2.62E-07 iu: 1.18E+03 rsn:   0
  2 2r: 1.06E-08 2x: 9.43E+05 2u: 1.55E+02 ir: 7.35E-09 iu: 1.14E+02 rsn:   0
  3 2r: 6.67E-12 2x: 9.43E+05 2u: 3.04E+00 ir: 5.45E-12 iu: 2.25E+00 rsn:   0
  4 2r: 3.43E-18 2x: 9.43E+05 2u: 1.76E-03 ir: 1.94E-18 iu: 1.29E-03 rsn: rtol
 Step     28 Time=  2.33333E+00 Dt=  8.33333E-02 [hour] snes_conv_reason:    3
  newton =   4 [     125] linear =     4 [       125] cuts =  0 [   0]
  --> max chng: dpmx=   1.0639E+03

== RICHARDS FLOW ===============================================================
  0 2r: 2.75E-06 2x: 0.00E+00 2u: 0.00E+00 ir: 1.37E-06 iu: 0.00E+00 rsn:   0
  1 2r: 3.98E-07 2x: 9.43E+05 2u: 1.98E+03 ir: 2.87E-07 iu: 1.22E+03 rsn:   0
  2 2r: 1.24E-08 2x: 9.43E+05 2u: 1.53E+02 ir: 7.72E-09 iu: 9.88E+01 rsn:   0
  3 2r: 3.24E-11 2x: 9.43E+05 2u: 2.80E+00 ir: 2.28E-11 iu: 1.83E+00 rsn:   0
  4 2r: 4.26E-16 2x: 9.43E+05 2u: 7.14E-04 ir: 3.01E-16 iu: 5.61E-04 rsn: rtol
 Step     29 Time=  2.41667E+00 Dt=  8.33333E-02 [hour] snes_conv_reason:    3
  newton =   4 [     129] linear =     4 [       129] cuts =  0 [   0]
  --> max chng: dpmx=   1.1192E+03

== RICHARDS FLOW ===============================================================
  0 2r: 2.73E-06 2x: 0.00E+00 2u: 0.00E+00 ir: 1.40E-06 iu: 0.00E+00 rsn:   0
  1 2r: 4.31E-07 2x: 9.44E+05 2u: 1.97E+03 ir: 2.41E-07 iu: 1.14E+03 rsn:   0
  2 2r: 9.79E-09 2x: 9.44E+05 2u: 1.50E+02 ir: 7.25E-09 iu: 1.10E+02 rsn:   0
  3 2r: 6.03E-12 2x: 9.44E+05 2u: 2.69E+00 ir: 4.91E-12 iu: 2.09E+00 rsn:   0
  4 2r: 2.63E-18 2x: 9.44E+05 2u: 1.48E-03 ir: 1.47E-18 iu: 1.09E-03 rsn: rtol
 Step     30 Time=  2.50000E+00 Dt=  8.33333E-02 [hour] snes_conv_reason:    3
  newton =   4 [     133] linear =     4 [       133] cuts =  0 [   0]
  --> max chng: dpmx=   1.0465E+03

== RICHARDS FLOW ===============================================================
  0 2r: 2.71E-06 2x: 0.00E+00 2u: 0.00E+00 ir: 1.36E-06 iu: 0.00E+00 rsn:   0
  1 2r: 3.65E-07 2x: 9.44E+05 2u: 1.95E+03 ir: 2.73E-07 iu: 1.20E+03 rsn:   0
  2 2r: 7.96E-09 2x: 9.44E+05 2u: 1.48E+02 ir: 6.74E-09 iu: 9.95E+01 rsn:   0
  3 2r: 2.60E-12 2x: 9.44E+05 2u: 2.69E+00 ir: 2.45E-12 iu: 1.76E+00 rsn:   0
  4 2r: 2.97E-18 2x: 9.44E+05 2u: 6.44E-04 ir: 1.52E-18 iu: 4.45E-04 rsn: rtol
 Step     31 Time=  2.58333E+00 Dt=  8.33333E-02 [hour] snes_conv_reason:    3
  newton =   4 [     137] linear =     4 [       137] cuts =  0 [   0]
  --> max chng: dpmx=   1.0983E+03

== RICHARDS FLOW ===============================================================
  0 2r: 2.69E-06 2x: 0.00E+00 2u: 0.00E+00 ir: 1.37E-06 iu: 0.00E+00 rsn:   0
  1 2r: 3.81E-07 2x: 9.45E+05 2u: 1.94E+03 ir: 2.39E-07 iu: 1.11E+03 rsn:   0
  2 2r: 1.49E-07 2x: 9.45E+05 2u: 1.45E+02 ir: 1.05E-07 iu: 1.05E+02 rsn:   0
  3 2r: 5.77E-08 2x: 9.45E+05 2u: 2.61E+00 ir: 4.08E-08 iu: 1.98E+00 rsn:   0
  4 2r: 1.49E-07 2x: 9.45E+05 2u: 8.99E-01 ir: 1.05E-07 iu: 3.90E-01 rsn:   0
  5 2r: 5.77E-08 2x: 9.45E+05 2u: 9.00E-01 ir: 4.08E-08 iu: 3.90E-01 rsn:   0
  6 2r: 1.49E-07 2x: 9.45E+05 2u: 9.00E-01 ir: 1.05E-07 iu: 3.90E-01 rsn:   0
  7 2r: 5.77E-08 2x: 9.45E+05 2u: 9.00E-01 ir: 4.08E-08 iu: 3.90E-01 rsn:   0
  8 2r: 1.49E-07 2x: 9.45E+05 2u: 9.00E-01 ir: 1.05E-07 iu: 3.90E-01 rsn:   0
  9 2r: 5.77E-08 2x: 9.45E+05 2u: 9.00E-01 ir: 4.08E-08 iu: 3.90E-01 rsn:   0
 10 2r: 1.49E-07 2x: 9.45E+05 2u: 9.00E-01 ir: 1.05E-07 iu: 3.90E-01 rsn:   0
 11 2r: 5.77E-08 2x: 9.45E+05 2u: 9.00E-01 ir: 4.08E-08 iu: 3.90E-01 rsn:   0
 12 2r: 1.49E-07 2x: 9.45E+05 2u: 9.00E-01 ir: 1.05E-07 iu: 3.90E-01 rsn:   0
 13 2r: 5.77E-08 2x: 9.45E+05 2u: 9.00E-01 ir: 4.08E-08 iu: 3.90E-01 rsn:   0
 14 2r: 1.49E-07 2x: 9.45E+05 2u: 9.00E-01 ir: 1.05E-07 iu: 3.90E-01 rsn:   0
 15 2r: 5.77E-08 2x: 9.45E+05 2u: 9.00E-01 ir: 4.08E-08 iu: 3.90E-01 rsn:   0
 16 2r: 1.49E-07 2x: 9.45E+05 2u: 9.00E-01 ir: 1.05E-07 iu: 3.90E-01 rsn:   0
 17 2r: 5.77E-08 2x: 9.45E+05 2u: 9.00E-01 ir: 4.08E-08 iu: 3.90E-01 rsn:   0
 18 2r: 1.49E-07 2x: 9.45E+05 2u: 9.00E-01 ir: 1.05E-07 iu: 3.90E-01 rsn:   0
 19 2r: 5.77E-08 2x: 9.45E+05 2u: 9.00E-01 ir: 4.08E-08 iu: 3.90E-01 rsn:   0
 20 2r: 1.49E-07 2x: 9.45E+05 2u: 9.00E-01 ir: 1.05E-07 iu: 3.90E-01 rsn:   0
 21 2r: 5.77E-08 2x: 9.45E+05 2u: 9.00E-01 ir: 4.08E-08 iu: 3.90E-01 rsn:   0
 22 2r: 1.49E-07 2x: 9.45E+05 2u: 9.00E-01 ir: 1.05E-07 iu: 3.90E-01 rsn:   0
 23 2r: 5.77E-08 2x: 9.45E+05 2u: 9.00E-01 ir: 4.08E-08 iu: 3.90E-01 rsn:   0
 24 2r: 1.49E-07 2x: 9.45E+05 2u: 9.00E-01 ir: 1.05E-07 iu: 3.90E-01 rsn:   0
 25 2r: 5.77E-08 2x: 9.45E+05 2u: 9.00E-01 ir: 4.08E-08 iu: 3.90E-01 rsn:   0
 26 2r: 1.49E-07 2x: 9.45E+05 2u: 9.00E-01 ir: 1.05E-07 iu: 3.90E-01 rsn:   0
 27 2r: 5.77E-08 2x: 9.45E+05 2u: 9.00E-01 ir: 4.08E-08 iu: 3.90E-01 rsn:   0
 28 2r: 1.49E-07 2x: 9.45E+05 2u: 9.00E-01 ir: 1.05E-07 iu: 3.90E-01 rsn:   0
 29 2r: 5.77E-08 2x: 9.45E+05 2u: 9.00E-01 ir: 4.08E-08 iu: 3.90E-01 rsn:   0
 30 2r: 1.49E-07 2x: 9.45E+05 2u: 9.00E-01 ir: 1.05E-07 iu: 3.90E-01 rsn:   0
 31 2r: 5.77E-08 2x: 9.45E+05 2u: 9.00E-01 ir: 4.08E-08 iu: 3.90E-01 rsn:   0
 32 2r: 1.49E-07 2x: 9.45E+05 2u: 9.00E-01 ir: 1.05E-07 iu: 3.90E-01 rsn:   0
 33 2r: 5.77E-08 2x: 9.45E+05 2u: 9.00E-01 ir: 4.08E-08 iu: 3.90E-01 rsn:   0
 34 2r: 1.49E-07 2x: 9.45E+05 2u: 9.00E-01 ir: 1.05E-07 iu: 3.90E-01 rsn:   0
 35 2r: 5.77E-08 2x: 9.45E+05 2u: 9.00E-01 ir: 4.08E-08 iu: 3.90E-01 rsn:   0
 36 2r: 1.49E-07 2x: 9.45E+05 2u: 9.00E-01 ir: 1.05E-07 iu: 3.90E-01 rsn:   0
 37 2r: 5.77E-08 2x: 9.45E+05 2u: 9.00E-01 ir: 4.08E-08 iu: 3.90E-01 rsn:   0
 38 2r: 1.49E-07 2x: 9.45E+05 2u: 9.00E-01 ir: 1.05E-07 iu: 3.90E-01 rsn:   0
 39 2r: 5.77E-08 2x: 9.45E+05 2u: 9.00E-01 ir: 4.08E-08 iu: 3.90E-01 rsn:   0
 40 2r: 1.49E-07 2x: 9.45E+05 2u: 9.00E-01 ir: 1.05E-07 iu: 3.90E-01 rsn:   0
 41 2r: 5.77E-08 2x: 9.45E+05 2u: 9.00E-01 ir: 4.08E-08 iu: 3.90E-01 rsn:   0
 42 2r: 1.49E-07 2x: 9.45E+05 2u: 9.00E-01 ir: 1.05E-07 iu: 3.90E-01 rsn:   0
 43 2r: 5.77E-08 2x: 9.45E+05 2u: 9.00E-01 ir: 4.08E-08 iu: 3.90E-01 rsn:   0
 44 2r: 1.49E-07 2x: 9.45E+05 2u: 9.00E-01 ir: 1.05E-07 iu: 3.90E-01 rsn:   0
 45 2r: 5.77E-08 2x: 9.45E+05 2u: 9.00E-01 ir: 4.08E-08 iu: 3.90E-01 rsn:   0
 46 2r: 1.49E-07 2x: 9.45E+05 2u: 9.00E-01 ir: 1.05E-07 iu: 3.90E-01 rsn:   0
 47 2r: 5.77E-08 2x: 9.45E+05 2u: 9.00E-01 ir: 4.08E-08 iu: 3.90E-01 rsn:   0
 48 2r: 1.49E-07 2x: 9.45E+05 2u: 9.00E-01 ir: 1.05E-07 iu: 3.90E-01 rsn:   0
 49 2r: 5.77E-08 2x: 9.45E+05 2u: 9.00E-01 ir: 4.08E-08 iu: 3.90E-01 rsn:   0
 50 2r: 1.49E-07 2x: 9.45E+05 2u: 9.00E-01 ir: 1.05E-07 iu: 3.90E-01 rsn:   0
  0 2r: 2.69E-06 2x: 0.00E+00 2u: 0.00E+00 ir: 1.37E-06 iu: 0.00E+00 rsn:   0
  1 2r: 1.30E-07 2x: 9.44E+05 2u: 9.19E+02 ir: 8.36E-08 iu: 5.36E+02 rsn:   0
  2 2r: 7.69E-10 2x: 9.44E+05 2u: 3.29E+01 ir: 4.29E-10 iu: 2.49E+01 rsn:   0
  3 2r: 1.32E-13 2x: 9.44E+05 2u: 1.03E-01 ir: 9.33E-14 iu: 8.32E-02 rsn:   0
  4 2r: 4.90E-18 2x: 9.44E+05 2u: 1.88E-06 ir: 2.91E-18 iu: 1.29E-06 rsn: rtol
 Step     32 Time=  2.62500E+00 Dt=  4.16667E-02 [hour] snes_conv_reason:    3
  newton =  54 [     191] linear =    54 [       191] cuts =  1 [   1]
  --> max chng: dpmx=   5.1119E+02

== RICHARDS FLOW ===============================================================
  0 2r: 2.69E-06 2x: 0.00E+00 2u: 0.00E+00 ir: 1.34E-06 iu: 0.00E+00 rsn:   0
  1 2r: 1.40E-07 2x: 9.45E+05 2u: 9.25E+02 ir: 8.90E-08 iu: 5.41E+02 rsn:   0
  2 2r: 6.85E-08 2x: 9.45E+05 2u: 3.37E+01 ir: 4.84E-08 iu: 2.42E+01 rsn:   0
  3 2r: 1.71E-08 2x: 9.45E+05 2u: 2.67E-01 ir: 1.21E-08 iu: 1.19E-01 rsn:   0
  4 2r: 6.85E-08 2x: 9.45E+05 2u: 2.49E-01 ir: 4.85E-08 iu: 1.19E-01 rsn:   0
  5 2r: 1.71E-08 2x: 9.45E+05 2u: 2.50E-01 ir: 1.21E-08 iu: 1.19E-01 rsn:   0
  6 2r: 6.85E-08 2x: 9.45E+05 2u: 2.50E-01 ir: 4.85E-08 iu: 1.19E-01 rsn:   0
  7 2r: 1.71E-08 2x: 9.45E+05 2u: 2.50E-01 ir: 1.21E-08 iu: 1.19E-01 rsn:   0
  8 2r: 6.85E-08 2x: 9.45E+05 2u: 2.50E-01 ir: 4.85E-08 iu: 1.19E-01 rsn:   0
  9 2r: 1.71E-08 2x: 9.45E+05 2u: 2.50E-01 ir: 1.21E-08 iu: 1.19E-01 rsn:   0
 10 2r: 6.85E-08 2x: 9.45E+05 2u: 2.50E-01 ir: 4.85E-08 iu: 1.19E-01 rsn:   0
 11 2r: 1.71E-08 2x: 9.45E+05 2u: 2.50E-01 ir: 1.21E-08 iu: 1.19E-01 rsn:   0
 12 2r: 6.85E-08 2x: 9.45E+05 2u: 2.50E-01 ir: 4.85E-08 iu: 1.19E-01 rsn:   0
 13 2r: 1.71E-08 2x: 9.45E+05 2u: 2.50E-01 ir: 1.21E-08 iu: 1.19E-01 rsn:   0
 14 2r: 6.85E-08 2x: 9.45E+05 2u: 2.50E-01 ir: 4.85E-08 iu: 1.19E-01 rsn:   0
 15 2r: 1.71E-08 2x: 9.45E+05 2u: 2.50E-01 ir: 1.21E-08 iu: 1.19E-01 rsn:   0
 16 2r: 6.85E-08 2x: 9.45E+05 2u: 2.50E-01 ir: 4.85E-08 iu: 1.19E-01 rsn:   0
 17 2r: 1.71E-08 2x: 9.45E+05 2u: 2.50E-01 ir: 1.21E-08 iu: 1.19E-01 rsn:   0
 18 2r: 6.85E-08 2x: 9.45E+05 2u: 2.50E-01 ir: 4.85E-08 iu: 1.19E-01 rsn:   0
 19 2r: 1.71E-08 2x: 9.45E+05 2u: 2.50E-01 ir: 1.21E-08 iu: 1.19E-01 rsn:   0
 20 2r: 6.85E-08 2x: 9.45E+05 2u: 2.50E-01 ir: 4.85E-08 iu: 1.19E-01 rsn:   0
 21 2r: 1.71E-08 2x: 9.45E+05 2u: 2.50E-01 ir: 1.21E-08 iu: 1.19E-01 rsn:   0
 22 2r: 6.85E-08 2x: 9.45E+05 2u: 2.50E-01 ir: 4.85E-08 iu: 1.19E-01 rsn:   0
 23 2r: 1.71E-08 2x: 9.45E+05 2u: 2.50E-01 ir: 1.21E-08 iu: 1.19E-01 rsn:   0
 24 2r: 6.85E-08 2x: 9.45E+05 2u: 2.50E-01 ir: 4.85E-08 iu: 1.19E-01 rsn:   0
 25 2r: 1.71E-08 2x: 9.45E+05 2u: 2.50E-01 ir: 1.21E-08 iu: 1.19E-01 rsn:   0
 26 2r: 6.85E-08 2x: 9.45E+05 2u: 2.50E-01 ir: 4.85E-08 iu: 1.19E-01 rsn:   0
 27 2r: 1.71E-08 2x: 9.45E+05 2u: 2.50E-01 ir: 1.21E-08 iu: 1.19E-01 rsn:   0
 28 2r: 6.85E-08 2x: 9.45E+05 2u: 2.50E-01 ir: 4.85E-08 iu: 1.19E-01 rsn:   0
 29 2r: 1.71E-08 2x: 9.45E+05 2u: 2.50E-01 ir: 1.21E-08 iu: 1.19E-01 rsn:   0
 30 2r: 6.85E-08 2x: 9.45E+05 2u: 2.50E-01 ir: 4.85E-08 iu: 1.19E-01 rsn:   0
 31 2r: 1.71E-08 2x: 9.45E+05 2u: 2.50E-01 ir: 1.21E-08 iu: 1.19E-01 rsn:   0
 32 2r: 6.85E-08 2x: 9.45E+05 2u: 2.50E-01 ir: 4.85E-08 iu: 1.19E-01 rsn:   0
 33 2r: 1.71E-08 2x: 9.45E+05 2u: 2.50E-01 ir: 1.21E-08 iu: 1.19E-01 rsn:   0
 34 2r: 6.85E-08 2x: 9.45E+05 2u: 2.50E-01 ir: 4.85E-08 iu: 1.19E-01 rsn:   0
 35 2r: 1.71E-08 2x: 9.45E+05 2u: 2.50E-01 ir: 1.21E-08 iu: 1.19E-01 rsn:   0
 36 2r: 6.85E-08 2x: 9.45E+05 2u: 2.50E-01 ir: 4.85E-08 iu: 1.19E-01 rsn:   0
 37 2r: 1.71E-08 2x: 9.45E+05 2u: 2.50E-01 ir: 1.21E-08 iu: 1.19E-01 rsn:   0
 38 2r: 6.85E-08 2x: 9.45E+05 2u: 2.50E-01 ir: 4.85E-08 iu: 1.19E-01 rsn:   0
 39 2r: 1.71E-08 2x: 9.45E+05 2u: 2.50E-01 ir: 1.21E-08 iu: 1.19E-01 rsn:   0
 40 2r: 6.85E-08 2x: 9.45E+05 2u: 2.50E-01 ir: 4.85E-08 iu: 1.19E-01 rsn:   0
 41 2r: 1.71E-08 2x: 9.45E+05 2u: 2.50E-01 ir: 1.21E-08 iu: 1.19E-01 rsn:   0
 42 2r: 6.85E-08 2x: 9.45E+05 2u: 2.50E-01 ir: 4.85E-08 iu: 1.19E-01 rsn:   0
 43 2r: 1.71E-08 2x: 9.45E+05 2u: 2.50E-01 ir: 1.21E-08 iu: 1.19E-01 rsn:   0
 44 2r: 6.85E-08 2x: 9.45E+05 2u: 2.50E-01 ir: 4.85E-08 iu: 1.19E-01 rsn:   0
 45 2r: 1.71E-08 2x: 9.45E+05 2u: 2.50E-01 ir: 1.21E-08 iu: 1.19E-01 rsn:   0
 46 2r: 6.85E-08 2x: 9.45E+05 2u: 2.50E-01 ir: 4.85E-08 iu: 1.19E-01 rsn:   0
 47 2r: 1.71E-08 2x: 9.45E+05 2u: 2.50E-01 ir: 1.21E-08 iu: 1.19E-01 rsn:   0
 48 2r: 6.85E-08 2x: 9.45E+05 2u: 2.50E-01 ir: 4.85E-08 iu: 1.19E-01 rsn:   0
 49 2r: 1.71E-08 2x: 9.45E+05 2u: 2.50E-01 ir: 1.21E-08 iu: 1.19E-01 rsn:   0
 50 2r: 6.85E-08 2x: 9.45E+05 2u: 2.50E-01 ir: 4.85E-08 iu: 1.19E-01 rsn:   0
  0 2r: 2.69E-06 2x: 0.00E+00 2u: 0.00E+00 ir: 1.34E-06 iu: 0.00E+00 rsn:   0
  1 2r: 5.87E-08 2x: 9.45E+05 2u: 4.47E+02 ir: 3.61E-08 iu: 2.52E+02 rsn:   0
  2 2r: 8.10E-10 2x: 9.45E+05 2u: 8.02E+00 ir: 5.73E-10 iu: 5.84E+00 rsn:   0
  3 2r: 6.12E-13 2x: 9.45E+05 2u: 6.32E-03 ir: 4.33E-13 iu: 4.13E-03 rsn: stol
 Step     33 Time=  2.64583E+00 Dt=  2.08333E-02 [hour] snes_conv_reason:    4
  newton =  53 [     244] linear =    53 [       244] cuts =  1 [   2]
  --> max chng: dpmx=   2.4795E+02

== RICHARDS FLOW ===============================================================
  0 2r: 2.69E-06 2x: 0.00E+00 2u: 0.00E+00 ir: 1.34E-06 iu: 0.00E+00 rsn:   0
  1 2r: 5.86E-08 2x: 9.45E+05 2u: 4.50E+02 ir: 3.75E-08 iu: 2.65E+02 rsn:   0
  2 2r: 2.09E-08 2x: 9.45E+05 2u: 8.19E+00 ir: 1.48E-08 iu: 5.67E+00 rsn:   0
  3 2r: 2.37E-09 2x: 9.45E+05 2u: 3.41E-02 ir: 1.67E-09 iu: 1.68E-02 rsn:   0
  4 2r: 2.10E-08 2x: 9.45E+05 2u: 3.39E-02 ir: 1.48E-08 iu: 1.69E-02 rsn:   0
  5 2r: 2.37E-09 2x: 9.45E+05 2u: 3.39E-02 ir: 1.67E-09 iu: 1.69E-02 rsn:   0
  6 2r: 2.10E-08 2x: 9.45E+05 2u: 3.39E-02 ir: 1.48E-08 iu: 1.69E-02 rsn:   0
  7 2r: 2.37E-09 2x: 9.45E+05 2u: 3.39E-02 ir: 1.67E-09 iu: 1.69E-02 rsn:   0
  8 2r: 2.10E-08 2x: 9.45E+05 2u: 3.39E-02 ir: 1.48E-08 iu: 1.69E-02 rsn:   0
  9 2r: 2.37E-09 2x: 9.45E+05 2u: 3.39E-02 ir: 1.67E-09 iu: 1.69E-02 rsn:   0
 10 2r: 2.10E-08 2x: 9.45E+05 2u: 3.39E-02 ir: 1.48E-08 iu: 1.69E-02 rsn:   0
 11 2r: 2.37E-09 2x: 9.45E+05 2u: 3.39E-02 ir: 1.67E-09 iu: 1.69E-02 rsn:   0
 12 2r: 2.10E-08 2x: 9.45E+05 2u: 3.39E-02 ir: 1.48E-08 iu: 1.69E-02 rsn:   0
 13 2r: 2.37E-09 2x: 9.45E+05 2u: 3.39E-02 ir: 1.67E-09 iu: 1.69E-02 rsn:   0
 14 2r: 2.10E-08 2x: 9.45E+05 2u: 3.39E-02 ir: 1.48E-08 iu: 1.69E-02 rsn:   0
 15 2r: 2.37E-09 2x: 9.45E+05 2u: 3.39E-02 ir: 1.67E-09 iu: 1.69E-02 rsn:   0
 16 2r: 2.10E-08 2x: 9.45E+05 2u: 3.39E-02 ir: 1.48E-08 iu: 1.69E-02 rsn:   0
 17 2r: 2.37E-09 2x: 9.45E+05 2u: 3.39E-02 ir: 1.67E-09 iu: 1.69E-02 rsn:   0
 18 2r: 2.10E-08 2x: 9.45E+05 2u: 3.39E-02 ir: 1.48E-08 iu: 1.69E-02 rsn:   0
 19 2r: 2.37E-09 2x: 9.45E+05 2u: 3.39E-02 ir: 1.67E-09 iu: 1.69E-02 rsn:   0
 20 2r: 2.10E-08 2x: 9.45E+05 2u: 3.39E-02 ir: 1.48E-08 iu: 1.69E-02 rsn:   0
 21 2r: 2.37E-09 2x: 9.45E+05 2u: 3.39E-02 ir: 1.67E-09 iu: 1.69E-02 rsn:   0
 22 2r: 2.10E-08 2x: 9.45E+05 2u: 3.39E-02 ir: 1.48E-08 iu: 1.69E-02 rsn:   0
 23 2r: 2.37E-09 2x: 9.45E+05 2u: 3.39E-02 ir: 1.67E-09 iu: 1.69E-02 rsn:   0
 24 2r: 2.10E-08 2x: 9.45E+05 2u: 3.39E-02 ir: 1.48E-08 iu: 1.69E-02 rsn:   0
 25 2r: 2.37E-09 2x: 9.45E+05 2u: 3.39E-02 ir: 1.67E-09 iu: 1.69E-02 rsn:   0
 26 2r: 2.10E-08 2x: 9.45E+05 2u: 3.39E-02 ir: 1.48E-08 iu: 1.69E-02 rsn:   0
 27 2r: 2.37E-09 2x: 9.45E+05 2u: 3.39E-02 ir: 1.67E-09 iu: 1.69E-02 rsn:   0
 28 2r: 2.10E-08 2x: 9.45E+05 2u: 3.39E-02 ir: 1.48E-08 iu: 1.69E-02 rsn:   0
 29 2r: 2.37E-09 2x: 9.45E+05 2u: 3.39E-02 ir: 1.67E-09 iu: 1.69E-02 rsn:   0
 30 2r: 2.10E-08 2x: 9.45E+05 2u: 3.39E-02 ir: 1.48E-08 iu: 1.69E-02 rsn:   0
 31 2r: 2.37E-09 2x: 9.45E+05 2u: 3.39E-02 ir: 1.67E-09 iu: 1.69E-02 rsn:   0
 32 2r: 2.10E-08 2x: 9.45E+05 2u: 3.39E-02 ir: 1.48E-08 iu: 1.69E-02 rsn:   0
 33 2r: 2.37E-09 2x: 9.45E+05 2u: 3.39E-02 ir: 1.67E-09 iu: 1.69E-02 rsn:   0
 34 2r: 2.10E-08 2x: 9.45E+05 2u: 3.39E-02 ir: 1.48E-08 iu: 1.69E-02 rsn:   0
 35 2r: 2.37E-09 2x: 9.45E+05 2u: 3.39E-02 ir: 1.67E-09 iu: 1.69E-02 rsn:   0
 36 2r: 2.10E-08 2x: 9.45E+05 2u: 3.39E-02 ir: 1.48E-08 iu: 1.69E-02 rsn:   0
 37 2r: 2.37E-09 2x: 9.45E+05 2u: 3.39E-02 ir: 1.67E-09 iu: 1.69E-02 rsn:   0
 38 2r: 2.10E-08 2x: 9.45E+05 2u: 3.39E-02 ir: 1.48E-08 iu: 1.69E-02 rsn:   0
 39 2r: 2.37E-09 2x: 9.45E+05 2u: 3.39E-02 ir: 1.67E-09 iu: 1.69E-02 rsn:   0
 40 2r: 2.10E-08 2x: 9.45E+05 2u: 3.39E-02 ir: 1.48E-08 iu: 1.69E-02 rsn:   0
 41 2r: 2.37E-09 2x: 9.45E+05 2u: 3.39E-02 ir: 1.67E-09 iu: 1.69E-02 rsn:   0
 42 2r: 2.10E-08 2x: 9.45E+05 2u: 3.39E-02 ir: 1.48E-08 iu: 1.69E-02 rsn:   0
 43 2r: 2.37E-09 2x: 9.45E+05 2u: 3.39E-02 ir: 1.67E-09 iu: 1.69E-02 rsn:   0
 44 2r: 2.10E-08 2x: 9.45E+05 2u: 3.39E-02 ir: 1.48E-08 iu: 1.69E-02 rsn:   0
 45 2r: 2.37E-09 2x: 9.45E+05 2u: 3.39E-02 ir: 1.67E-09 iu: 1.69E-02 rsn:   0
 46 2r: 2.10E-08 2x: 9.45E+05 2u: 3.39E-02 ir: 1.48E-08 iu: 1.69E-02 rsn:   0
 47 2r: 2.37E-09 2x: 9.45E+05 2u: 3.39E-02 ir: 1.67E-09 iu: 1.69E-02 rsn:   0
 48 2r: 2.10E-08 2x: 9.45E+05 2u: 3.39E-02 ir: 1.48E-08 iu: 1.69E-02 rsn:   0
 49 2r: 2.37E-09 2x: 9.45E+05 2u: 3.39E-02 ir: 1.67E-09 iu: 1.69E-02 rsn:   0
 50 2r: 2.10E-08 2x: 9.45E+05 2u: 3.39E-02 ir: 1.48E-08 iu: 1.69E-02 rsn:   0
  0 2r: 2.69E-06 2x: 0.00E+00 2u: 0.00E+00 ir: 1.34E-06 iu: 0.00E+00 rsn:   0
  1 2r: 3.07E-08 2x: 9.45E+05 2u: 2.21E+02 ir: 1.69E-08 iu: 1.27E+02 rsn:   0
  2 2r: 9.66E-10 2x: 9.45E+05 2u: 2.01E+00 ir: 6.83E-10 iu: 1.39E+00 rsn:   0
  3 2r: 2.21E-12 2x: 9.45E+05 2u: 3.82E-03 ir: 1.56E-12 iu: 1.94E-03 rsn: stol
 Step     34 Time=  2.65625E+00 Dt=  1.04167E-02 [hour] snes_conv_reason:    4
  newton =  53 [     297] linear =    53 [       297] cuts =  1 [   3]
  --> max chng: dpmx=   1.2611E+02

== RICHARDS FLOW ===============================================================
  0 2r: 2.69E-06 2x: 0.00E+00 2u: 0.00E+00 ir: 1.36E-06 iu: 0.00E+00 rsn:   0
  1 2r: 2.58E-08 2x: 9.45E+05 2u: 2.22E+02 ir: 1.70E-08 iu: 1.30E+02 rsn:   0
  2 2r: 3.13E-12 2x: 9.45E+05 2u: 2.04E+00 ir: 2.86E-12 iu: 1.37E+00 rsn:   0
  3 2r: 3.78E-18 2x: 9.45E+05 2u: 2.47E-04 ir: 1.73E-18 iu: 2.09E-04 rsn: rtol
 Step     35 Time=  2.66667E+00 Dt=  1.04167E-02 [hour] snes_conv_reason:    3
  newton =   3 [     300] linear =     3 [       300] cuts =  0 [   3]
  --> max chng: dpmx=   1.2903E+02

== RICHARDS FLOW ===============================================================
  0 2r: 2.69E-06 2x: 0.00E+00 2u: 0.00E+00 ir: 1.37E-06 iu: 0.00E+00 rsn:   0
  1 2r: 2.43E-08 2x: 9.45E+05 2u: 2.22E+02 ir: 1.71E-08 iu: 1.33E+02 rsn:   0
  2 2r: 3.14E-12 2x: 9.45E+05 2u: 2.05E+00 ir: 2.83E-12 iu: 1.36E+00 rsn:   0
  3 2r: 3.35E-18 2x: 9.45E+05 2u: 2.54E-04 ir: 1.36E-18 iu: 2.01E-04 rsn: rtol
 Step     36 Time=  2.67708E+00 Dt=  1.04167E-02 [hour] snes_conv_reason:    3
  newton =   3 [     303] linear =     3 [       303] cuts =  0 [   3]
  --> max chng: dpmx=   1.3146E+02

== RICHARDS FLOW ===============================================================
  0 2r: 2.69E-06 2x: 0.00E+00 2u: 0.00E+00 ir: 1.38E-06 iu: 0.00E+00 rsn:   0
  1 2r: 2.44E-08 2x: 9.45E+05 2u: 2.23E+02 ir: 1.71E-08 iu: 1.35E+02 rsn:   0
  2 2r: 3.18E-12 2x: 9.45E+05 2u: 2.07E+00 ir: 2.76E-12 iu: 1.43E+00 rsn:   0
  3 2r: 4.03E-18 2x: 9.45E+05 2u: 2.62E-04 ir: 1.57E-18 iu: 1.91E-04 rsn: rtol
 Step     37 Time=  2.68750E+00 Dt=  1.04167E-02 [hour] snes_conv_reason:    3
  newton =   3 [     306] linear =     3 [       306] cuts =  0 [   3]
  --> max chng: dpmx=   1.3340E+02

== RICHARDS FLOW ===============================================================
  0 2r: 2.69E-06 2x: 0.00E+00 2u: 0.00E+00 ir: 1.38E-06 iu: 0.00E+00 rsn:   0
  1 2r: 2.45E-08 2x: 9.45E+05 2u: 2.24E+02 ir: 1.70E-08 iu: 1.36E+02 rsn:   0
  2 2r: 3.23E-12 2x: 9.45E+05 2u: 2.09E+00 ir: 2.66E-12 iu: 1.50E+00 rsn:   0
  3 2r: 2.89E-18 2x: 9.45E+05 2u: 2.72E-04 ir: 1.57E-18 iu: 1.96E-04 rsn: rtol
 Step     38 Time=  2.69792E+00 Dt=  1.04167E-02 [hour] snes_conv_reason:    3
  newton =   3 [     309] linear =     3 [       309] cuts =  0 [   3]
  --> max chng: dpmx=   1.3483E+02

== RICHARDS FLOW ===============================================================
  0 2r: 2.69E-06 2x: 0.00E+00 2u: 0.00E+00 ir: 1.38E-06 iu: 0.00E+00 rsn:   0
  1 2r: 2.47E-08 2x: 9.45E+05 2u: 2.24E+02 ir: 1.68E-08 iu: 1.37E+02 rsn:   0
  2 2r: 3.30E-12 2x: 9.45E+05 2u: 2.11E+00 ir: 2.54E-12 iu: 1.55E+00 rsn:   0
  3 2r: 3.21E-18 2x: 9.45E+05 2u: 2.83E-04 ir: 1.73E-18 iu: 2.20E-04 rsn: rtol
 Step     39 Time=  2.70833E+00 Dt=  1.04167E-02 [hour] snes_conv_reason:    3
  newton =   3 [     312] linear =     3 [       312] cuts =  0 [   3]
  --> max chng: dpmx=   1.3576E+02

== RICHARDS FLOW ===============================================================
  0 2r: 2.69E-06 2x: 0.00E+00 2u: 0.00E+00 ir: 1.39E-06 iu: 0.00E+00 rsn:   0
  1 2r: 5.41E-08 2x: 9.45E+05 2u: 4.58E+02 ir: 3.70E-08 iu: 2.82E+02 rsn:   0
  2 2r: 3.65E-11 2x: 9.45E+05 2u: 8.61E+00 ir: 2.55E-11 iu: 6.57E+00 rsn:   0
  3 2r: 1.92E-17 2x: 9.45E+05 2u: 5.66E-03 ir: 1.55E-17 iu: 4.55E-03 rsn: rtol
 Step     40 Time=  2.72917E+00 Dt=  2.08333E-02 [hour] snes_conv_reason:    3
  newton =   3 [     315] linear =     3 [       315] cuts =  0 [   3]
  --> max chng: dpmx=   2.7502E+02

== RICHARDS FLOW ===============================================================
  0 2r: 2.69E-06 2x: 0.00E+00 2u: 0.00E+00 ir: 1.38E-06 iu: 0.00E+00 rsn:   0
  1 2r: 5.45E-08 2x: 9.45E+05 2u: 4.60E+02 ir: 3.55E-08 iu: 2.79E+02 rsn:   0
  2 2r: 3.88E-11 2x: 9.45E+05 2u: 8.65E+00 ir: 3.02E-11 iu: 6.73E+00 rsn:   0
  3 2r: 2.67E-17 2x: 9.45E+05 2u: 5.85E-03 ir: 2.41E-17 iu: 5.09E-03 rsn: rtol
 Step     41 Time=  2.75000E+00 Dt=  2.08333E-02 [hour] snes_conv_reason:    3
  newton =   3 [     318] linear =     3 [       318] cuts =  0 [   3]
  --> max chng: dpmx=   2.7216E+02

== RICHARDS FLOW ===============================================================
  0 2r: 2.69E-06 2x: 0.00E+00 2u: 0.00E+00 ir: 1.37E-06 iu: 0.00E+00 rsn:   0
  1 2r: 1.32E-07 2x: 9.45E+05 2u: 9.53E+02 ir: 9.31E-08 iu: 5.57E+02 rsn:   0
  2 2r: 5.79E-10 2x: 9.45E+05 2u: 3.65E+01 ir: 4.91E-10 iu: 2.79E+01 rsn:   0
  3 2r: 1.37E-14 2x: 9.45E+05 2u: 1.21E-01 ir: 1.18E-14 iu: 1.08E-01 rsn: rtol
 Step     42 Time=  2.79167E+00 Dt=  4.16667E-02 [hour] snes_conv_reason:    3
  newton =   3 [     321] linear =     3 [       321] cuts =  0 [   3]
  --> max chng: dpmx=   5.2895E+02

== RICHARDS FLOW ===============================================================
  0 2r: 2.69E-06 2x: 0.00E+00 2u: 0.00E+00 ir: 1.37E-06 iu: 0.00E+00 rsn:   0
  1 2r: 1.37E-07 2x: 9.46E+05 2u: 9.53E+02 ir: 9.87E-08 iu: 5.87E+02 rsn:   0
  2 2r: 1.19E-09 2x: 9.46E+05 2u: 3.72E+01 ir: 7.60E-10 iu: 2.55E+01 rsn:   0
  3 2r: 5.73E-13 2x: 9.46E+05 2u: 1.09E-01 ir: 4.05E-13 iu: 9.29E-02 rsn:   0
  4 2r: 1.47E-17 2x: 9.46E+05 2u: 4.41E-06 ir: 1.03E-17 iu: 1.90E-06 rsn: rtol
 Step     43 Time=  2.83333E+00 Dt=  4.16667E-02 [hour] snes_conv_reason:    3
  newton =   4 [     325] linear =     4 [       325] cuts =  0 [   3]
  --> max chng: dpmx=   5.6440E+02

== RICHARDS FLOW ===============================================================
  0 2r: 2.69E-06 2x: 0.00E+00 2u: 0.00E+00 ir: 1.39E-06 iu: 0.00E+00 rsn:   0
  1 2r: 4.18E-07 2x: 9.46E+05 2u: 2.01E+03 ir: 2.71E-07 iu: 1.27E+03 rsn:   0
  2 2r: 9.81E-09 2x: 9.46E+05 2u: 1.61E+02 ir: 5.86E-09 iu: 1.21E+02 rsn:   0
  3 2r: 4.70E-12 2x: 9.46E+05 2u: 3.60E+00 ir: 3.79E-12 iu: 2.33E+00 rsn:   0
  4 2r: 3.62E-18 2x: 9.46E+05 2u: 1.72E-03 ir: 1.47E-18 iu: 1.30E-03 rsn: rtol
 Step     44 Time=  2.91667E+00 Dt=  8.33333E-02 [hour] snes_conv_reason:    3
  newton =   4 [     329] linear =     4 [       329] cuts =  0 [   3]
  --> max chng: dpmx=   1.1458E+03

== RICHARDS FLOW ===============================================================
  0 2r: 2.67E-06 2x: 0.00E+00 2u: 0.00E+00 ir: 1.36E-06 iu: 0.00E+00 rsn:   0
  1 2r: 3.70E-07 2x: 9.47E+05 2u: 1.97E+03 ir: 2.77E-07 iu: 1.18E+03 rsn:   0
  2 2r: 9.60E-09 2x: 9.47E+05 2u: 1.54E+02 ir: 8.39E-09 iu: 1.10E+02 rsn:   0
  3 2r: 6.35E-12 2x: 9.47E+05 2u: 2.56E+00 ir: 5.16E-12 iu: 2.12E+00 rsn:   0
  4 2r: 3.70E-18 2x: 9.47E+05 2u: 1.35E-03 ir: 1.63E-18 iu: 1.00E-03 rsn: rtol
 Step     45 Time=  3.00000E+00 Dt=  8.33333E-02 [hour] snes_conv_reason:    3
  newton =   4 [     333] linear =     4 [       333] cuts =  0 [   3]
  --> max chng: dpmx=   1.1036E+03

== RICHARDS FLOW ===============================================================
  0 2r: 2.65E-06 2x: 0.00E+00 2u: 0.00E+00 ir: 1.36E-06 iu: 0.00E+00 rsn:   0
  1 2r: 3.72E-07 2x: 9.47E+05 2u: 1.94E+03 ir: 2.60E-07 iu: 1.20E+03 rsn:   0
  2 2r: 1.26E-07 2x: 9.47E+05 2u: 1.48E+02 ir: 8.87E-08 iu: 1.08E+02 rsn:   0
  3 2r: 4.38E-08 2x: 9.47E+05 2u: 3.01E+00 ir: 3.10E-08 iu: 1.82E+00 rsn:   0
  4 2r: 1.25E-07 2x: 9.47E+05 2u: 7.36E-01 ir: 8.87E-08 iu: 3.14E-01 rsn:   0
  5 2r: 4.39E-08 2x: 9.47E+05 2u: 7.36E-01 ir: 3.10E-08 iu: 3.15E-01 rsn:   0
  6 2r: 1.25E-07 2x: 9.47E+05 2u: 7.36E-01 ir: 8.87E-08 iu: 3.15E-01 rsn:   0
  7 2r: 4.39E-08 2x: 9.47E+05 2u: 7.36E-01 ir: 3.10E-08 iu: 3.15E-01 rsn:   0
  8 2r: 1.25E-07 2x: 9.47E+05 2u: 7.36E-01 ir: 8.87E-08 iu: 3.15E-01 rsn:   0
  9 2r: 4.39E-08 2x: 9.47E+05 2u: 7.36E-01 ir: 3.10E-08 iu: 3.15E-01 rsn:   0
 10 2r: 1.25E-07 2x: 9.47E+05 2u: 7.36E-01 ir: 8.87E-08 iu: 3.15E-01 rsn:   0
 11 2r: 4.39E-08 2x: 9.47E+05 2u: 7.36E-01 ir: 3.10E-08 iu: 3.15E-01 rsn:   0
 12 2r: 1.25E-07 2x: 9.47E+05 2u: 7.36E-01 ir: 8.87E-08 iu: 3.15E-01 rsn:   0
 13 2r: 4.39E-08 2x: 9.47E+05 2u: 7.36E-01 ir: 3.10E-08 iu: 3.15E-01 rsn:   0
 14 2r: 1.25E-07 2x: 9.47E+05 2u: 7.36E-01 ir: 8.87E-08 iu: 3.15E-01 rsn:   0
 15 2r: 4.39E-08 2x: 9.47E+05 2u: 7.36E-01 ir: 3.10E-08 iu: 3.15E-01 rsn:   0
 16 2r: 1.25E-07 2x: 9.47E+05 2u: 7.36E-01 ir: 8.87E-08 iu: 3.15E-01 rsn:   0
 17 2r: 4.39E-08 2x: 9.47E+05 2u: 7.36E-01 ir: 3.10E-08 iu: 3.15E-01 rsn:   0
 18 2r: 1.25E-07 2x: 9.47E+05 2u: 7.36E-01 ir: 8.87E-08 iu: 3.15E-01 rsn:   0
 19 2r: 4.39E-08 2x: 9.47E+05 2u: 7.36E-01 ir: 3.10E-08 iu: 3.15E-01 rsn:   0
 20 2r: 1.25E-07 2x: 9.47E+05 2u: 7.36E-01 ir: 8.87E-08 iu: 3.15E-01 rsn:   0
 21 2r: 4.39E-08 2x: 9.47E+05 2u: 7.36E-01 ir: 3.10E-08 iu: 3.15E-01 rsn:   0
 22 2r: 1.25E-07 2x: 9.47E+05 2u: 7.36E-01 ir: 8.87E-08 iu: 3.15E-01 rsn:   0
 23 2r: 4.39E-08 2x: 9.47E+05 2u: 7.36E-01 ir: 3.10E-08 iu: 3.15E-01 rsn:   0
 24 2r: 1.25E-07 2x: 9.47E+05 2u: 7.36E-01 ir: 8.87E-08 iu: 3.15E-01 rsn:   0
 25 2r: 4.39E-08 2x: 9.47E+05 2u: 7.36E-01 ir: 3.10E-08 iu: 3.15E-01 rsn:   0
 26 2r: 1.25E-07 2x: 9.47E+05 2u: 7.36E-01 ir: 8.87E-08 iu: 3.15E-01 rsn:   0
 27 2r: 4.39E-08 2x: 9.47E+05 2u: 7.36E-01 ir: 3.10E-08 iu: 3.15E-01 rsn:   0
 28 2r: 1.25E-07 2x: 9.47E+05 2u: 7.36E-01 ir: 8.87E-08 iu: 3.15E-01 rsn:   0
 29 2r: 4.39E-08 2x: 9.47E+05 2u: 7.36E-01 ir: 3.10E-08 iu: 3.15E-01 rsn:   0
 30 2r: 1.25E-07 2x: 9.47E+05 2u: 7.36E-01 ir: 8.87E-08 iu: 3.15E-01 rsn:   0
 31 2r: 4.39E-08 2x: 9.47E+05 2u: 7.36E-01 ir: 3.10E-08 iu: 3.15E-01 rsn:   0
 32 2r: 1.25E-07 2x: 9.47E+05 2u: 7.36E-01 ir: 8.87E-08 iu: 3.15E-01 rsn:   0
 33 2r: 4.39E-08 2x: 9.47E+05 2u: 7.36E-01 ir: 3.10E-08 iu: 3.15E-01 rsn:   0
 34 2r: 1.25E-07 2x: 9.47E+05 2u: 7.36E-01 ir: 8.87E-08 iu: 3.15E-01 rsn:   0
 35 2r: 4.39E-08 2x: 9.47E+05 2u: 7.36E-01 ir: 3.10E-08 iu: 3.15E-01 rsn:   0
 36 2r: 1.25E-07 2x: 9.47E+05 2u: 7.36E-01 ir: 8.87E-08 iu: 3.15E-01 rsn:   0
 37 2r: 4.39E-08 2x: 9.47E+05 2u: 7.36E-01 ir: 3.10E-08 iu: 3.15E-01 rsn:   0
 38 2r: 1.25E-07 2x: 9.47E+05 2u: 7.36E-01 ir: 8.87E-08 iu: 3.15E-01 rsn:   0
 39 2r: 4.39E-08 2x: 9.47E+05 2u: 7.36E-01 ir: 3.10E-08 iu: 3.15E-01 rsn:   0
 40 2r: 1.25E-07 2x: 9.47E+05 2u: 7.36E-01 ir: 8.87E-08 iu: 3.15E-01 rsn:   0
 41 2r: 4.39E-08 2x: 9.47E+05 2u: 7.36E-01 ir: 3.10E-08 iu: 3.15E-01 rsn:   0
 42 2r: 1.25E-07 2x: 9.47E+05 2u: 7.36E-01 ir: 8.87E-08 iu: 3.15E-01 rsn:   0
 43 2r: 4.39E-08 2x: 9.47E+05 2u: 7.36E-01 ir: 3.10E-08 iu: 3.15E-01 rsn:   0
 44 2r: 1.25E-07 2x: 9.47E+05 2u: 7.36E-01 ir: 8.87E-08 iu: 3.15E-01 rsn:   0
 45 2r: 4.39E-08 2x: 9.47E+05 2u: 7.36E-01 ir: 3.10E-08 iu: 3.15E-01 rsn:   0
 46 2r: 1.25E-07 2x: 9.47E+05 2u: 7.36E-01 ir: 8.87E-08 iu: 3.15E-01 rsn:   0
 47 2r: 4.39E-08 2x: 9.47E+05 2u: 7.36E-01 ir: 3.10E-08 iu: 3.15E-01 rsn:   0
 48 2r: 1.25E-07 2x: 9.47E+05 2u: 7.36E-01 ir: 8.87E-08 iu: 3.15E-01 rsn:   0
 49 2r: 4.39E-08 2x: 9.47E+05 2u: 7.36E-01 ir: 3.10E-08 iu: 3.15E-01 rsn:   0
 50 2r: 1.25E-07 2x: 9.47E+05 2u: 7.36E-01 ir: 8.87E-08 iu: 3.15E-01 rsn:   0
  0 2r: 2.65E-06 2x: 0.00E+00 2u: 0.00E+00 ir: 1.36E-06 iu: 0.00E+00 rsn:   0
  1 2r: 1.29E-07 2x: 9.47E+05 2u: 9.20E+02 ir: 9.20E-08 iu: 5.66E+02 rsn:   0
  2 2r: 9.19E-10 2x: 9.47E+05 2u: 3.41E+01 ir: 5.74E-10 iu: 2.40E+01 rsn:   0
  3 2r: 3.12E-13 2x: 9.47E+05 2u: 1.04E-01 ir: 2.20E-13 iu: 6.50E-02 rsn:   0
  4 2r: 3.84E-18 2x: 9.47E+05 2u: 2.50E-06 ir: 1.79E-18 iu: 1.06E-06 rsn: rtol
 Step     46 Time=  3.04167E+00 Dt=  4.16667E-02 [hour] snes_conv_reason:    3
  newton =  54 [     387] linear =    54 [       387] cuts =  1 [   4]
  --> max chng: dpmx=   5.4169E+02

== RICHARDS FLOW ===============================================================
  0 2r: 2.64E-06 2x: 0.00E+00 2u: 0.00E+00 ir: 1.36E-06 iu: 0.00E+00 rsn:   0
  1 2r: 1.33E-07 2x: 9.47E+05 2u: 9.23E+02 ir: 8.52E-08 iu: 5.57E+02 rsn:   0
  2 2r: 4.79E-08 2x: 9.47E+05 2u: 3.39E+01 ir: 3.39E-08 iu: 2.61E+01 rsn:   0
  3 2r: 9.43E-09 2x: 9.47E+05 2u: 1.91E-01 ir: 6.67E-09 iu: 8.95E-02 rsn:   0
  4 2r: 4.79E-08 2x: 9.47E+05 2u: 1.52E-01 ir: 3.39E-08 iu: 6.91E-02 rsn:   0
  5 2r: 9.43E-09 2x: 9.47E+05 2u: 1.52E-01 ir: 6.67E-09 iu: 6.91E-02 rsn:   0
  6 2r: 4.79E-08 2x: 9.47E+05 2u: 1.52E-01 ir: 3.39E-08 iu: 6.91E-02 rsn:   0
  7 2r: 9.43E-09 2x: 9.47E+05 2u: 1.52E-01 ir: 6.67E-09 iu: 6.91E-02 rsn:   0
  8 2r: 4.79E-08 2x: 9.47E+05 2u: 1.52E-01 ir: 3.39E-08 iu: 6.91E-02 rsn:   0
  9 2r: 9.43E-09 2x: 9.47E+05 2u: 1.52E-01 ir: 6.67E-09 iu: 6.91E-02 rsn:   0
 10 2r: 4.79E-08 2x: 9.47E+05 2u: 1.52E-01 ir: 3.39E-08 iu: 6.91E-02 rsn:   0
 11 2r: 9.43E-09 2x: 9.47E+05 2u: 1.52E-01 ir: 6.67E-09 iu: 6.91E-02 rsn:   0
 12 2r: 4.79E-08 2x: 9.47E+05 2u: 1.52E-01 ir: 3.39E-08 iu: 6.91E-02 rsn:   0
 13 2r: 9.43E-09 2x: 9.47E+05 2u: 1.52E-01 ir: 6.67E-09 iu: 6.91E-02 rsn:   0
 14 2r: 4.79E-08 2x: 9.47E+05 2u: 1.52E-01 ir: 3.39E-08 iu: 6.91E-02 rsn:   0
 15 2r: 9.43E-09 2x: 9.47E+05 2u: 1.52E-01 ir: 6.67E-09 iu: 6.91E-02 rsn:   0
 16 2r: 4.79E-08 2x: 9.47E+05 2u: 1.52E-01 ir: 3.39E-08 iu: 6.91E-02 rsn:   0
 17 2r: 9.43E-09 2x: 9.47E+05 2u: 1.52E-01 ir: 6.67E-09 iu: 6.91E-02 rsn:   0
 18 2r: 4.79E-08 2x: 9.47E+05 2u: 1.52E-01 ir: 3.39E-08 iu: 6.91E-02 rsn:   0
 19 2r: 9.43E-09 2x: 9.47E+05 2u: 1.52E-01 ir: 6.67E-09 iu: 6.91E-02 rsn:   0
 20 2r: 4.79E-08 2x: 9.47E+05 2u: 1.52E-01 ir: 3.39E-08 iu: 6.91E-02 rsn:   0
 21 2r: 9.43E-09 2x: 9.47E+05 2u: 1.52E-01 ir: 6.67E-09 iu: 6.91E-02 rsn:   0
 22 2r: 4.79E-08 2x: 9.47E+05 2u: 1.52E-01 ir: 3.39E-08 iu: 6.91E-02 rsn:   0
 23 2r: 9.43E-09 2x: 9.47E+05 2u: 1.52E-01 ir: 6.67E-09 iu: 6.91E-02 rsn:   0
 24 2r: 4.79E-08 2x: 9.47E+05 2u: 1.52E-01 ir: 3.39E-08 iu: 6.91E-02 rsn:   0
 25 2r: 9.43E-09 2x: 9.47E+05 2u: 1.52E-01 ir: 6.67E-09 iu: 6.91E-02 rsn:   0
 26 2r: 4.79E-08 2x: 9.47E+05 2u: 1.52E-01 ir: 3.39E-08 iu: 6.91E-02 rsn:   0
 27 2r: 9.43E-09 2x: 9.47E+05 2u: 1.52E-01 ir: 6.67E-09 iu: 6.91E-02 rsn:   0
 28 2r: 4.79E-08 2x: 9.47E+05 2u: 1.52E-01 ir: 3.39E-08 iu: 6.91E-02 rsn:   0
 29 2r: 9.43E-09 2x: 9.47E+05 2u: 1.52E-01 ir: 6.67E-09 iu: 6.91E-02 rsn:   0
 30 2r: 4.79E-08 2x: 9.47E+05 2u: 1.52E-01 ir: 3.39E-08 iu: 6.91E-02 rsn:   0
 31 2r: 9.43E-09 2x: 9.47E+05 2u: 1.52E-01 ir: 6.67E-09 iu: 6.91E-02 rsn:   0
 32 2r: 4.79E-08 2x: 9.47E+05 2u: 1.52E-01 ir: 3.39E-08 iu: 6.91E-02 rsn:   0
 33 2r: 9.43E-09 2x: 9.47E+05 2u: 1.52E-01 ir: 6.67E-09 iu: 6.91E-02 rsn:   0
 34 2r: 4.79E-08 2x: 9.47E+05 2u: 1.52E-01 ir: 3.39E-08 iu: 6.91E-02 rsn:   0
 35 2r: 9.43E-09 2x: 9.47E+05 2u: 1.52E-01 ir: 6.67E-09 iu: 6.91E-02 rsn:   0
 36 2r: 4.79E-08 2x: 9.47E+05 2u: 1.52E-01 ir: 3.39E-08 iu: 6.91E-02 rsn:   0
 37 2r: 9.43E-09 2x: 9.47E+05 2u: 1.52E-01 ir: 6.67E-09 iu: 6.91E-02 rsn:   0
 38 2r: 4.79E-08 2x: 9.47E+05 2u: 1.52E-01 ir: 3.39E-08 iu: 6.91E-02 rsn:   0
 39 2r: 9.43E-09 2x: 9.47E+05 2u: 1.52E-01 ir: 6.67E-09 iu: 6.91E-02 rsn:   0
 40 2r: 4.79E-08 2x: 9.47E+05 2u: 1.52E-01 ir: 3.39E-08 iu: 6.91E-02 rsn:   0
 41 2r: 9.43E-09 2x: 9.47E+05 2u: 1.52E-01 ir: 6.67E-09 iu: 6.91E-02 rsn:   0
 42 2r: 4.79E-08 2x: 9.47E+05 2u: 1.52E-01 ir: 3.39E-08 iu: 6.91E-02 rsn:   0
 43 2r: 9.43E-09 2x: 9.47E+05 2u: 1.52E-01 ir: 6.67E-09 iu: 6.91E-02 rsn:   0
 44 2r: 4.79E-08 2x: 9.47E+05 2u: 1.52E-01 ir: 3.39E-08 iu: 6.91E-02 rsn:   0
 45 2r: 9.43E-09 2x: 9.47E+05 2u: 1.52E-01 ir: 6.67E-09 iu: 6.91E-02 rsn:   0
 46 2r: 4.79E-08 2x: 9.47E+05 2u: 1.52E-01 ir: 3.39E-08 iu: 6.91E-02 rsn:   0
 47 2r: 9.43E-09 2x: 9.47E+05 2u: 1.52E-01 ir: 6.67E-09 iu: 6.91E-02 rsn:   0
 48 2r: 4.79E-08 2x: 9.47E+05 2u: 1.52E-01 ir: 3.39E-08 iu: 6.91E-02 rsn:   0
 49 2r: 9.43E-09 2x: 9.47E+05 2u: 1.52E-01 ir: 6.67E-09 iu: 6.91E-02 rsn:   0
 50 2r: 4.79E-08 2x: 9.47E+05 2u: 1.52E-01 ir: 3.39E-08 iu: 6.91E-02 rsn:   0
  0 2r: 2.64E-06 2x: 0.00E+00 2u: 0.00E+00 ir: 1.36E-06 iu: 0.00E+00 rsn:   0
  1 2r: 5.79E-08 2x: 9.47E+05 2u: 4.47E+02 ir: 3.53E-08 iu: 2.71E+02 rsn:   0
  2 2r: 1.01E-09 2x: 9.47E+05 2u: 8.13E+00 ir: 7.15E-10 iu: 6.18E+00 rsn:   0
  3 2r: 1.27E-12 2x: 9.47E+05 2u: 7.57E-03 ir: 8.98E-13 iu: 4.08E-03 rsn: stol
 Step     47 Time=  3.06250E+00 Dt=  2.08333E-02 [hour] snes_conv_reason:    4
  newton =  53 [     440] linear =    53 [       440] cuts =  1 [   5]
  --> max chng: dpmx=   2.6441E+02

== RICHARDS FLOW ===============================================================
  0 2r: 2.64E-06 2x: 0.00E+00 2u: 0.00E+00 ir: 1.35E-06 iu: 0.00E+00 rsn:   0
  1 2r: 5.47E-08 2x: 9.47E+05 2u: 4.48E+02 ir: 3.37E-08 iu: 2.68E+02 rsn:   0
  2 2r: 3.50E-11 2x: 9.47E+05 2u: 8.19E+00 ir: 2.79E-11 iu: 6.30E+00 rsn:   0
  3 2r: 2.24E-17 2x: 9.47E+05 2u: 5.12E-03 ir: 2.02E-17 iu: 4.51E-03 rsn: rtol
 Step     48 Time=  3.08333E+00 Dt=  2.08333E-02 [hour] snes_conv_reason:    3
  newton =   3 [     443] linear =     3 [       443] cuts =  0 [   5]
  --> max chng: dpmx=   2.6127E+02

== RICHARDS FLOW ===============================================================
  0 2r: 2.64E-06 2x: 0.00E+00 2u: 0.00E+00 ir: 1.34E-06 iu: 0.00E+00 rsn:   0
  1 2r: 5.20E-08 2x: 9.47E+05 2u: 4.50E+02 ir: 3.61E-08 iu: 2.62E+02 rsn:   0
  2 2r: 3.58E-11 2x: 9.47E+05 2u: 8.26E+00 ir: 3.15E-11 iu: 6.26E+00 rsn:   0
  3 2r: 2.64E-17 2x: 9.47E+05 2u: 4.99E-03 ir: 2.39E-17 iu: 4.63E-03 rsn: rtol
 Step     49 Time=  3.10417E+00 Dt=  2.08333E-02 [hour] snes_conv_reason:    3
  newton =   3 [     446] linear =     3 [       446] cuts =  0 [   5]
  --> max chng: dpmx=   2.5573E+02

== RICHARDS FLOW ===============================================================
  0 2r: 2.64E-06 2x: 0.00E+00 2u: 0.00E+00 ir: 1.32E-06 iu: 0.00E+00 rsn:   0
  1 2r: 5.21E-08 2x: 9.48E+05 2u: 4.52E+02 ir: 3.76E-08 iu: 2.62E+02 rsn:   0
  2 2r: 3.54E-11 2x: 9.48E+05 2u: 8.36E+00 ir: 3.31E-11 iu: 6.09E+00 rsn:   0
  3 2r: 2.67E-17 2x: 9.48E+05 2u: 4.78E-03 ir: 2.44E-17 iu: 4.48E-03 rsn: rtol
 Step     50 Time=  3.12500E+00 Dt=  2.08333E-02 [hour] snes_conv_reason:    3
  newton =   3 [     449] linear =     3 [       449] cuts =  0 [   5]
  --> max chng: dpmx=   2.5770E+02

== RICHARDS FLOW ===============================================================
  0 2r: 2.64E-06 2x: 0.00E+00 2u: 0.00E+00 ir: 1.35E-06 iu: 0.00E+00 rsn:   0
  1 2r: 5.24E-08 2x: 9.48E+05 2u: 4.53E+02 ir: 3.82E-08 iu: 2.74E+02 rsn:   0
  2 2r: 3.43E-11 2x: 9.48E+05 2u: 8.48E+00 ir: 3.27E-11 iu: 5.83E+00 rsn:   0
  3 2r: 2.32E-17 2x: 9.48E+05 2u: 4.74E-03 ir: 2.16E-17 iu: 4.16E-03 rsn: rtol
 Step     51 Time=  3.14583E+00 Dt=  2.08333E-02 [hour] snes_conv_reason:    3
  newton =   3 [     452] linear =     3 [       452] cuts =  0 [   5]
  --> max chng: dpmx=   2.6833E+02

== RICHARDS FLOW ===============================================================
  0 2r: 2.64E-06 2x: 0.00E+00 2u: 0.00E+00 ir: 1.36E-06 iu: 0.00E+00 rsn:   0
  1 2r: 5.27E-08 2x: 9.48E+05 2u: 4.54E+02 ir: 3.82E-08 iu: 2.81E+02 rsn:   0
  2 2r: 3.37E-11 2x: 9.48E+05 2u: 8.58E+00 ir: 3.09E-11 iu: 5.89E+00 rsn:   0
  3 2r: 1.78E-17 2x: 9.48E+05 2u: 4.98E-03 ir: 1.72E-17 iu: 3.74E-03 rsn: rtol
 Step     52 Time=  3.16667E+00 Dt=  2.08333E-02 [hour] snes_conv_reason:    3
  newton =   3 [     455] linear =     3 [       455] cuts =  0 [   5]
  --> max chng: dpmx=   2.7506E+02

== RICHARDS FLOW ===============================================================
  0 2r: 2.64E-06 2x: 0.00E+00 2u: 0.00E+00 ir: 1.37E-06 iu: 0.00E+00 rsn:   0
  1 2r: 5.31E-08 2x: 9.48E+05 2u: 4.55E+02 ir: 3.75E-08 iu: 2.84E+02 rsn:   0
  2 2r: 3.44E-11 2x: 9.48E+05 2u: 8.64E+00 ir: 2.80E-11 iu: 6.38E+00 rsn:   0
  3 2r: 1.55E-17 2x: 9.48E+05 2u: 5.41E-03 ir: 1.22E-17 iu: 3.91E-03 rsn: rtol
 Step     53 Time=  3.18750E+00 Dt=  2.08333E-02 [hour] snes_conv_reason:    3
  newton =   3 [     458] linear =     3 [       458] cuts =  0 [   5]
  --> max chng: dpmx=   2.7796E+02

== RICHARDS FLOW ===============================================================
  0 2r: 2.64E-06 2x: 0.00E+00 2u: 0.00E+00 ir: 1.37E-06 iu: 0.00E+00 rsn:   0
  1 2r: 1.30E-07 2x: 9.48E+05 2u: 9.42E+02 ir: 8.74E-08 iu: 5.86E+02 rsn:   0
  2 2r: 6.25E-10 2x: 9.48E+05 2u: 3.61E+01 ir: 3.51E-10 iu: 2.83E+01 rsn:   0
  3 2r: 4.79E-14 2x: 9.48E+05 2u: 1.32E-01 ir: 3.33E-14 iu: 1.03E-01 rsn:   0
  4 2r: 4.75E-18 2x: 9.48E+05 2u: 2.21E-06 ir: 3.16E-18 iu: 1.83E-06 rsn: rtol
 Step     54 Time=  3.22917E+00 Dt=  4.16667E-02 [hour] snes_conv_reason:    3
  newton =   4 [     462] linear =     4 [       462] cuts =  0 [   5]
  --> max chng: dpmx=   5.5729E+02

== RICHARDS FLOW ===============================================================
  0 2r: 2.64E-06 2x: 0.00E+00 2u: 0.00E+00 ir: 1.35E-06 iu: 0.00E+00 rsn:   0
  1 2r: 5.51E-08 2x: 9.48E+05 2u: 4.56E+02 ir: 3.66E-08 iu: 2.73E+02 rsn:   0
  2 2r: 2.10E-10 2x: 9.48E+05 2u: 8.56E+00 ir: 1.46E-10 iu: 6.66E+00 rsn:   0
  3 2r: 3.26E-14 2x: 9.48E+05 2u: 5.79E-03 ir: 2.30E-14 iu: 5.15E-03 rsn: stol
 Step     55 Time=  3.25000E+00 Dt=  2.08333E-02 [hour] snes_conv_reason:    4
  newton =   3 [     465] linear =     3 [       465] cuts =  0 [   5]
  --> max chng: dpmx=   2.6624E+02

== RICHARDS FLOW ===============================================================
  0 2r: 2.64E-06 2x: 0.00E+00 2u: 0.00E+00 ir: 1.33E-06 iu: 0.00E+00 rsn:   0
  1 2r: 4.10E-07 2x: 9.49E+05 2u: 1.99E+03 ir: 2.83E-07 iu: 1.23E+03 rsn:   0
  2 2r: 8.86E-09 2x: 9.49E+05 2u: 1.60E+02 ir: 8.17E-09 iu: 1.08E+02 rsn:   0
  3 2r: 5.30E-12 2x: 9.49E+05 2u: 2.63E+00 ir: 4.42E-12 iu: 2.04E+00 rsn:   0
  4 2r: 3.87E-18 2x: 9.49E+05 2u: 1.05E-03 ir: 1.82E-18 iu: 8.42E-04 rsn: rtol
 Step     56 Time=  3.33333E+00 Dt=  8.33333E-02 [hour] snes_conv_reason:    3
  newton =   4 [     469] linear =     4 [       469] cuts =  0 [   5]
  --> max chng: dpmx=   1.1439E+03

== RICHARDS FLOW ===============================================================
  0 2r: 2.62E-06 2x: 0.00E+00 2u: 0.00E+00 ir: 1.36E-06 iu: 0.00E+00 rsn:   0
  1 2r: 3.60E-07 2x: 9.49E+05 2u: 1.94E+03 ir: 2.49E-07 iu: 1.21E+03 rsn:   0
  2 2r: 8.83E-09 2x: 9.49E+05 2u: 1.50E+02 ir: 5.23E-09 iu: 1.13E+02 rsn:   0
  3 2r: 4.05E-12 2x: 9.49E+05 2u: 3.05E+00 ir: 3.31E-12 iu: 2.07E+00 rsn:   0
  4 2r: 3.32E-18 2x: 9.49E+05 2u: 1.37E-03 ir: 1.40E-18 iu: 1.04E-03 rsn: rtol
 Step     57 Time=  3.41667E+00 Dt=  8.33333E-02 [hour] snes_conv_reason:    3
  newton =   4 [     473] linear =     4 [       473] cuts =  0 [   5]
  --> max chng: dpmx=   1.0926E+03

== RICHARDS FLOW ===============================================================
  0 2r: 2.61E-06 2x: 0.00E+00 2u: 0.00E+00 ir: 1.32E-06 iu: 0.00E+00 rsn:   0
  1 2r: 3.42E-07 2x: 9.50E+05 2u: 1.91E+03 ir: 2.58E-07 iu: 1.15E+03 rsn:   0
  2 2r: 7.91E-09 2x: 9.50E+05 2u: 1.45E+02 ir: 7.10E-09 iu: 1.00E+02 rsn:   0
  3 2r: 4.36E-12 2x: 9.50E+05 2u: 2.21E+00 ir: 3.58E-12 iu: 1.77E+00 rsn:   0
  4 2r: 3.74E-18 2x: 9.50E+05 2u: 8.72E-04 ir: 1.79E-18 iu: 6.74E-04 rsn: rtol
 Step     58 Time=  3.50000E+00 Dt=  8.33333E-02 [hour] snes_conv_reason:    3
  newton =   4 [     477] linear =     4 [       477] cuts =  0 [   5]
  --> max chng: dpmx=   1.0768E+03

== RICHARDS FLOW ===============================================================
  0 2r: 2.59E-06 2x: 0.00E+00 2u: 0.00E+00 ir: 1.33E-06 iu: 0.00E+00 rsn:   0
  1 2r: 3.33E-07 2x: 9.50E+05 2u: 1.89E+03 ir: 2.37E-07 iu: 1.15E+03 rsn:   0
  2 2r: 7.30E-09 2x: 9.50E+05 2u: 1.39E+02 ir: 4.39E-09 iu: 1.02E+02 rsn:   0
  3 2r: 2.54E-12 2x: 9.50E+05 2u: 2.51E+00 ir: 1.97E-12 iu: 1.64E+00 rsn:   0
  4 2r: 3.83E-18 2x: 9.50E+05 2u: 8.81E-04 ir: 1.99E-18 iu: 6.49E-04 rsn: rtol
 Step     59 Time=  3.58333E+00 Dt=  8.33333E-02 [hour] snes_conv_reason:    3
  newton =   4 [     481] linear =     4 [       481] cuts =  0 [   5]
  --> max chng: dpmx=   1.0482E+03

== RICHARDS FLOW ===============================================================
  0 2r: 2.58E-06 2x: 0.00E+00 2u: 0.00E+00 ir: 1.30E-06 iu: 0.00E+00 rsn:   0
  1 2r: 3.61E-07 2x: 9.51E+05 2u: 1.87E+03 ir: 2.36E-07 iu: 1.12E+03 rsn:   0
  2 2r: 8.13E-08 2x: 9.51E+05 2u: 1.37E+02 ir: 5.72E-08 iu: 9.43E+01 rsn:   0
  3 2r: 7.96E-09 2x: 9.51E+05 2u: 1.99E+00 ir: 5.63E-09 iu: 1.53E+00 rsn:   0
  4 2r: 6.11E-11 2x: 9.51E+05 2u: 5.68E-02 ir: 4.32E-11 iu: 2.30E-02 rsn:   0
  5 2r: 3.52E-15 2x: 9.51E+05 2u: 4.43E-04 ir: 2.49E-15 iu: 1.79E-04 rsn: rtol
 Step     60 Time=  3.66667E+00 Dt=  8.33333E-02 [hour] snes_conv_reason:    3
  newton =   5 [     486] linear =     5 [       486] cuts =  0 [   5]
  --> max chng: dpmx=   1.0445E+03

== RICHARDS FLOW ===============================================================
  0 2r: 2.56E-06 2x: 0.00E+00 2u: 0.00E+00 ir: 1.30E-06 iu: 0.00E+00 rsn:   0
  1 2r: 3.72E-07 2x: 9.51E+05 2u: 1.86E+03 ir: 2.25E-07 iu: 1.12E+03 rsn:   0
  2 2r: 6.59E-09 2x: 9.51E+05 2u: 1.33E+02 ir: 4.04E-09 iu: 9.70E+01 rsn:   0
  3 2r: 2.00E-12 2x: 9.51E+05 2u: 2.23E+00 ir: 1.51E-12 iu: 1.45E+00 rsn:   0
  4 2r: 3.48E-18 2x: 9.51E+05 2u: 6.93E-04 ir: 1.12E-18 iu: 5.04E-04 rsn: rtol
 Step     61 Time=  3.75000E+00 Dt=  8.33333E-02 [hour] snes_conv_reason:    3
  newton =   4 [     490] linear =     4 [       490] cuts =  0 [   5]
  --> max chng: dpmx=   1.0222E+03

== RICHARDS FLOW ===============================================================
  0 2r: 2.55E-06 2x: 0.00E+00 2u: 0.00E+00 ir: 1.28E-06 iu: 0.00E+00 rsn:   0
  1 2r: 3.13E-07 2x: 9.52E+05 2u: 1.85E+03 ir: 2.24E-07 iu: 1.10E+03 rsn:   0
  2 2r: 6.83E-09 2x: 9.52E+05 2u: 1.32E+02 ir: 5.55E-09 iu: 9.05E+01 rsn:   0
  3 2r: 3.95E-12 2x: 9.52E+05 2u: 1.80E+00 ir: 2.30E-12 iu: 1.42E+00 rsn:   0
  4 2r: 5.99E-18 2x: 9.52E+05 2u: 5.55E-04 ir: 3.93E-18 iu: 4.33E-04 rsn: rtol
 Step     62 Time=  3.83333E+00 Dt=  8.33333E-02 [hour] snes_conv_reason:    3
  newton =   4 [     494] linear =     4 [       494] cuts =  0 [   5]
  --> max chng: dpmx=   1.0261E+03

== RICHARDS FLOW ===============================================================
  0 2r: 2.54E-06 2x: 0.00E+00 2u: 0.00E+00 ir: 1.28E-06 iu: 0.00E+00 rsn:   0
  1 2r: 3.05E-07 2x: 9.52E+05 2u: 1.84E+03 ir: 2.16E-07 iu: 1.10E+03 rsn:   0
  2 2r: 6.07E-09 2x: 9.52E+05 2u: 1.29E+02 ir: 3.78E-09 iu: 9.37E+01 rsn:   0
  3 2r: 1.73E-12 2x: 9.52E+05 2u: 2.07E+00 ir: 1.30E-12 iu: 1.34E+00 rsn:   0
  4 2r: 3.40E-18 2x: 9.52E+05 2u: 5.96E-04 ir: 1.12E-18 iu: 4.33E-04 rsn: rtol
 Step     63 Time=  3.91667E+00 Dt=  8.33333E-02 [hour] snes_conv_reason:    3
  newton =   4 [     498] linear =     4 [       498] cuts =  0 [   5]
  --> max chng: dpmx=   1.0061E+03

== RICHARDS FLOW ===============================================================
  0 2r: 2.53E-06 2x: 0.00E+00 2u: 0.00E+00 ir: 1.26E-06 iu: 0.00E+00 rsn:   0
  1 2r: 3.01E-07 2x: 9.53E+05 2u: 1.83E+03 ir: 2.16E-07 iu: 1.08E+03 rsn:   0
  2 2r: 5.92E-09 2x: 9.53E+05 2u: 1.29E+02 ir: 5.19E-09 iu: 8.80E+01 rsn:   0
  3 2r: 2.48E-12 2x: 9.53E+05 2u: 1.70E+00 ir: 2.04E-12 iu: 1.34E+00 rsn:   0
  4 2r: 5.26E-18 2x: 9.53E+05 2u: 4.90E-04 ir: 1.99E-18 iu: 3.85E-04 rsn: rtol
 Step     64 Time=  4.00000E+00 Dt=  8.33333E-02 [hour] snes_conv_reason:    3
  newton =   4 [     502] linear =     4 [       502] cuts =  0 [   5]
  --> max chng: dpmx=   1.0141E+03

== RICHARDS FLOW ===============================================================
  0 2r: 2.52E-06 2x: 0.00E+00 2u: 0.00E+00 ir: 1.27E-06 iu: 0.00E+00 rsn:   0
  1 2r: 3.16E-07 2x: 9.53E+05 2u: 1.82E+03 ir: 2.11E-07 iu: 1.09E+03 rsn:   0
  2 2r: 2.01E-07 2x: 9.53E+05 2u: 1.26E+02 ir: 1.42E-07 iu: 9.15E+01 rsn:   0
  3 2r: 8.66E-08 2x: 9.53E+05 2u: 2.65E+00 ir: 6.12E-08 iu: 1.32E+00 rsn:   0
  4 2r: 2.01E-07 2x: 9.53E+05 2u: 1.74E+00 ir: 1.42E-07 iu: 6.77E-01 rsn:   0
  5 2r: 8.66E-08 2x: 9.53E+05 2u: 1.74E+00 ir: 6.12E-08 iu: 6.77E-01 rsn:   0
  6 2r: 2.01E-07 2x: 9.53E+05 2u: 1.74E+00 ir: 1.42E-07 iu: 6.77E-01 rsn:   0
  7 2r: 8.66E-08 2x: 9.53E+05 2u: 1.74E+00 ir: 6.12E-08 iu: 6.77E-01 rsn:   0
  8 2r: 2.01E-07 2x: 9.53E+05 2u: 1.74E+00 ir: 1.42E-07 iu: 6.77E-01 rsn:   0
  9 2r: 8.66E-08 2x: 9.53E+05 2u: 1.74E+00 ir: 6.12E-08 iu: 6.77E-01 rsn:   0
 10 2r: 2.01E-07 2x: 9.53E+05 2u: 1.74E+00 ir: 1.42E-07 iu: 6.77E-01 rsn:   0
 11 2r: 8.66E-08 2x: 9.53E+05 2u: 1.74E+00 ir: 6.12E-08 iu: 6.77E-01 rsn:   0
 12 2r: 2.01E-07 2x: 9.53E+05 2u: 1.74E+00 ir: 1.42E-07 iu: 6.77E-01 rsn:   0
 13 2r: 8.66E-08 2x: 9.53E+05 2u: 1.74E+00 ir: 6.12E-08 iu: 6.77E-01 rsn:   0
 14 2r: 2.01E-07 2x: 9.53E+05 2u: 1.74E+00 ir: 1.42E-07 iu: 6.77E-01 rsn:   0
 15 2r: 8.66E-08 2x: 9.53E+05 2u: 1.74E+00 ir: 6.12E-08 iu: 6.77E-01 rsn:   0
 16 2r: 2.01E-07 2x: 9.53E+05 2u: 1.74E+00 ir: 1.42E-07 iu: 6.77E-01 rsn:   0
 17 2r: 8.66E-08 2x: 9.53E+05 2u: 1.74E+00 ir: 6.12E-08 iu: 6.77E-01 rsn:   0
 18 2r: 2.01E-07 2x: 9.53E+05 2u: 1.74E+00 ir: 1.42E-07 iu: 6.77E-01 rsn:   0
 19 2r: 8.66E-08 2x: 9.53E+05 2u: 1.74E+00 ir: 6.12E-08 iu: 6.77E-01 rsn:   0
 20 2r: 2.01E-07 2x: 9.53E+05 2u: 1.74E+00 ir: 1.42E-07 iu: 6.77E-01 rsn:   0
 21 2r: 8.66E-08 2x: 9.53E+05 2u: 1.74E+00 ir: 6.12E-08 iu: 6.77E-01 rsn:   0
 22 2r: 2.01E-07 2x: 9.53E+05 2u: 1.74E+00 ir: 1.42E-07 iu: 6.77E-01 rsn:   0
 23 2r: 8.66E-08 2x: 9.53E+05 2u: 1.74E+00 ir: 6.12E-08 iu: 6.77E-01 rsn:   0
 24 2r: 2.01E-07 2x: 9.53E+05 2u: 1.74E+00 ir: 1.42E-07 iu: 6.77E-01 rsn:   0
 25 2r: 8.66E-08 2x: 9.53E+05 2u: 1.74E+00 ir: 6.12E-08 iu: 6.77E-01 rsn:   0
 26 2r: 2.01E-07 2x: 9.53E+05 2u: 1.74E+00 ir: 1.42E-07 iu: 6.77E-01 rsn:   0
 27 2r: 8.66E-08 2x: 9.53E+05 2u: 1.74E+00 ir: 6.12E-08 iu: 6.77E-01 rsn:   0
 28 2r: 2.01E-07 2x: 9.53E+05 2u: 1.74E+00 ir: 1.42E-07 iu: 6.77E-01 rsn:   0
 29 2r: 8.66E-08 2x: 9.53E+05 2u: 1.74E+00 ir: 6.12E-08 iu: 6.77E-01 rsn:   0
 30 2r: 2.01E-07 2x: 9.53E+05 2u: 1.74E+00 ir: 1.42E-07 iu: 6.77E-01 rsn:   0
 31 2r: 8.66E-08 2x: 9.53E+05 2u: 1.74E+00 ir: 6.12E-08 iu: 6.77E-01 rsn:   0
 32 2r: 2.01E-07 2x: 9.53E+05 2u: 1.74E+00 ir: 1.42E-07 iu: 6.77E-01 rsn:   0
 33 2r: 8.66E-08 2x: 9.53E+05 2u: 1.74E+00 ir: 6.12E-08 iu: 6.77E-01 rsn:   0
 34 2r: 2.01E-07 2x: 9.53E+05 2u: 1.74E+00 ir: 1.42E-07 iu: 6.77E-01 rsn:   0
 35 2r: 8.66E-08 2x: 9.53E+05 2u: 1.74E+00 ir: 6.12E-08 iu: 6.77E-01 rsn:   0
 36 2r: 2.01E-07 2x: 9.53E+05 2u: 1.74E+00 ir: 1.42E-07 iu: 6.77E-01 rsn:   0
 37 2r: 8.66E-08 2x: 9.53E+05 2u: 1.74E+00 ir: 6.12E-08 iu: 6.77E-01 rsn:   0
 38 2r: 2.01E-07 2x: 9.53E+05 2u: 1.74E+00 ir: 1.42E-07 iu: 6.77E-01 rsn:   0
 39 2r: 8.66E-08 2x: 9.53E+05 2u: 1.74E+00 ir: 6.12E-08 iu: 6.77E-01 rsn:   0
 40 2r: 2.01E-07 2x: 9.53E+05 2u: 1.74E+00 ir: 1.42E-07 iu: 6.77E-01 rsn:   0
 41 2r: 8.66E-08 2x: 9.53E+05 2u: 1.74E+00 ir: 6.12E-08 iu: 6.77E-01 rsn:   0
 42 2r: 2.01E-07 2x: 9.53E+05 2u: 1.74E+00 ir: 1.42E-07 iu: 6.77E-01 rsn:   0
 43 2r: 8.66E-08 2x: 9.53E+05 2u: 1.74E+00 ir: 6.12E-08 iu: 6.77E-01 rsn:   0
 44 2r: 2.01E-07 2x: 9.53E+05 2u: 1.74E+00 ir: 1.42E-07 iu: 6.77E-01 rsn:   0
 45 2r: 8.66E-08 2x: 9.53E+05 2u: 1.74E+00 ir: 6.12E-08 iu: 6.77E-01 rsn:   0
 46 2r: 2.01E-07 2x: 9.53E+05 2u: 1.74E+00 ir: 1.42E-07 iu: 6.77E-01 rsn:   0
 47 2r: 8.66E-08 2x: 9.53E+05 2u: 1.74E+00 ir: 6.12E-08 iu: 6.77E-01 rsn:   0
 48 2r: 2.01E-07 2x: 9.53E+05 2u: 1.74E+00 ir: 1.42E-07 iu: 6.77E-01 rsn:   0
 49 2r: 8.66E-08 2x: 9.53E+05 2u: 1.74E+00 ir: 6.12E-08 iu: 6.77E-01 rsn:   0
 50 2r: 2.01E-07 2x: 9.53E+05 2u: 1.74E+00 ir: 1.42E-07 iu: 6.77E-01 rsn:   0
  0 2r: 2.52E-06 2x: 0.00E+00 2u: 0.00E+00 ir: 1.27E-06 iu: 0.00E+00 rsn:   0
  1 2r: 1.09E-07 2x: 9.53E+05 2u: 8.65E+02 ir: 7.57E-08 iu: 5.16E+02 rsn:   0
  2 2r: 6.95E-10 2x: 9.53E+05 2u: 2.90E+01 ir: 4.42E-10 iu: 2.06E+01 rsn:   0
  3 2r: 2.12E-13 2x: 9.53E+05 2u: 7.42E-02 ir: 1.50E-13 iu: 4.63E-02 rsn:   0
  4 2r: 3.74E-18 2x: 9.53E+05 2u: 1.94E-06 ir: 1.72E-18 iu: 7.50E-07 rsn: rtol
 Step     65 Time=  4.04167E+00 Dt=  4.16667E-02 [hour] snes_conv_reason:    3
  newton =  54 [     556] linear =    54 [       556] cuts =  1 [   6]
  --> max chng: dpmx=   4.9530E+02

== RICHARDS FLOW ===============================================================
  0 2r: 2.52E-06 2x: 0.00E+00 2u: 0.00E+00 ir: 1.27E-06 iu: 0.00E+00 rsn:   0
  1 2r: 1.28E-07 2x: 9.53E+05 2u: 8.70E+02 ir: 7.14E-08 iu: 5.08E+02 rsn:   0
  2 2r: 1.68E-07 2x: 9.53E+05 2u: 2.94E+01 ir: 1.19E-07 iu: 2.20E+01 rsn:   0
  3 2r: 6.58E-08 2x: 9.53E+05 2u: 1.31E+00 ir: 4.65E-08 iu: 5.22E-01 rsn:   0
  4 2r: 1.68E-07 2x: 9.53E+05 2u: 1.31E+00 ir: 1.19E-07 iu: 5.22E-01 rsn:   0
  5 2r: 6.58E-08 2x: 9.53E+05 2u: 1.31E+00 ir: 4.65E-08 iu: 5.22E-01 rsn:   0
  6 2r: 1.68E-07 2x: 9.53E+05 2u: 1.31E+00 ir: 1.19E-07 iu: 5.22E-01 rsn:   0
  7 2r: 6.58E-08 2x: 9.53E+05 2u: 1.31E+00 ir: 4.65E-08 iu: 5.22E-01 rsn:   0
  8 2r: 1.68E-07 2x: 9.53E+05 2u: 1.31E+00 ir: 1.19E-07 iu: 5.22E-01 rsn:   0
  9 2r: 6.58E-08 2x: 9.53E+05 2u: 1.31E+00 ir: 4.65E-08 iu: 5.22E-01 rsn:   0
 10 2r: 1.68E-07 2x: 9.53E+05 2u: 1.31E+00 ir: 1.19E-07 iu: 5.22E-01 rsn:   0
 11 2r: 6.58E-08 2x: 9.53E+05 2u: 1.31E+00 ir: 4.65E-08 iu: 5.22E-01 rsn:   0
 12 2r: 1.68E-07 2x: 9.53E+05 2u: 1.31E+00 ir: 1.19E-07 iu: 5.22E-01 rsn:   0
 13 2r: 6.58E-08 2x: 9.53E+05 2u: 1.31E+00 ir: 4.65E-08 iu: 5.22E-01 rsn:   0
 14 2r: 1.68E-07 2x: 9.53E+05 2u: 1.31E+00 ir: 1.19E-07 iu: 5.22E-01 rsn:   0
 15 2r: 6.58E-08 2x: 9.53E+05 2u: 1.31E+00 ir: 4.65E-08 iu: 5.22E-01 rsn:   0
 16 2r: 1.68E-07 2x: 9.53E+05 2u: 1.31E+00 ir: 1.19E-07 iu: 5.22E-01 rsn:   0
 17 2r: 6.58E-08 2x: 9.53E+05 2u: 1.31E+00 ir: 4.65E-08 iu: 5.22E-01 rsn:   0
 18 2r: 1.68E-07 2x: 9.53E+05 2u: 1.31E+00 ir: 1.19E-07 iu: 5.22E-01 rsn:   0
 19 2r: 6.58E-08 2x: 9.53E+05 2u: 1.31E+00 ir: 4.65E-08 iu: 5.22E-01 rsn:   0
 20 2r: 1.68E-07 2x: 9.53E+05 2u: 1.31E+00 ir: 1.19E-07 iu: 5.22E-01 rsn:   0
 21 2r: 6.58E-08 2x: 9.53E+05 2u: 1.31E+00 ir: 4.65E-08 iu: 5.22E-01 rsn:   0
 22 2r: 1.68E-07 2x: 9.53E+05 2u: 1.31E+00 ir: 1.19E-07 iu: 5.22E-01 rsn:   0
 23 2r: 6.58E-08 2x: 9.53E+05 2u: 1.31E+00 ir: 4.65E-08 iu: 5.22E-01 rsn:   0
 24 2r: 1.68E-07 2x: 9.53E+05 2u: 1.31E+00 ir: 1.19E-07 iu: 5.22E-01 rsn:   0
 25 2r: 6.58E-08 2x: 9.53E+05 2u: 1.31E+00 ir: 4.65E-08 iu: 5.22E-01 rsn:   0
 26 2r: 1.68E-07 2x: 9.53E+05 2u: 1.31E+00 ir: 1.19E-07 iu: 5.22E-01 rsn:   0
 27 2r: 6.58E-08 2x: 9.53E+05 2u: 1.31E+00 ir: 4.65E-08 iu: 5.22E-01 rsn:   0
 28 2r: 1.68E-07 2x: 9.53E+05 2u: 1.31E+00 ir: 1.19E-07 iu: 5.22E-01 rsn:   0
 29 2r: 6.58E-08 2x: 9.53E+05 2u: 1.31E+00 ir: 4.65E-08 iu: 5.22E-01 rsn:   0
 30 2r: 1.68E-07 2x: 9.53E+05 2u: 1.31E+00 ir: 1.19E-07 iu: 5.22E-01 rsn:   0
 31 2r: 6.58E-08 2x: 9.53E+05 2u: 1.31E+00 ir: 4.65E-08 iu: 5.22E-01 rsn:   0
 32 2r: 1.68E-07 2x: 9.53E+05 2u: 1.31E+00 ir: 1.19E-07 iu: 5.22E-01 rsn:   0
 33 2r: 6.58E-08 2x: 9.53E+05 2u: 1.31E+00 ir: 4.65E-08 iu: 5.22E-01 rsn:   0
 34 2r: 1.68E-07 2x: 9.53E+05 2u: 1.31E+00 ir: 1.19E-07 iu: 5.22E-01 rsn:   0
 35 2r: 6.58E-08 2x: 9.53E+05 2u: 1.31E+00 ir: 4.65E-08 iu: 5.22E-01 rsn:   0
 36 2r: 1.68E-07 2x: 9.53E+05 2u: 1.31E+00 ir: 1.19E-07 iu: 5.22E-01 rsn:   0
 37 2r: 6.58E-08 2x: 9.53E+05 2u: 1.31E+00 ir: 4.65E-08 iu: 5.22E-01 rsn:   0
 38 2r: 1.68E-07 2x: 9.53E+05 2u: 1.31E+00 ir: 1.19E-07 iu: 5.22E-01 rsn:   0
 39 2r: 6.58E-08 2x: 9.53E+05 2u: 1.31E+00 ir: 4.65E-08 iu: 5.22E-01 rsn:   0
 40 2r: 1.68E-07 2x: 9.53E+05 2u: 1.31E+00 ir: 1.19E-07 iu: 5.22E-01 rsn:   0
 41 2r: 6.58E-08 2x: 9.53E+05 2u: 1.31E+00 ir: 4.65E-08 iu: 5.22E-01 rsn:   0
 42 2r: 1.68E-07 2x: 9.53E+05 2u: 1.31E+00 ir: 1.19E-07 iu: 5.22E-01 rsn:   0
 43 2r: 6.58E-08 2x: 9.53E+05 2u: 1.31E+00 ir: 4.65E-08 iu: 5.22E-01 rsn:   0
 44 2r: 1.68E-07 2x: 9.53E+05 2u: 1.31E+00 ir: 1.19E-07 iu: 5.22E-01 rsn:   0
 45 2r: 6.58E-08 2x: 9.53E+05 2u: 1.31E+00 ir: 4.65E-08 iu: 5.22E-01 rsn:   0
 46 2r: 1.68E-07 2x: 9.53E+05 2u: 1.31E+00 ir: 1.19E-07 iu: 5.22E-01 rsn:   0
 47 2r: 6.58E-08 2x: 9.53E+05 2u: 1.31E+00 ir: 4.65E-08 iu: 5.22E-01 rsn:   0
 48 2r: 1.68E-07 2x: 9.53E+05 2u: 1.31E+00 ir: 1.19E-07 iu: 5.22E-01 rsn:   0
 49 2r: 6.58E-08 2x: 9.53E+05 2u: 1.31E+00 ir: 4.65E-08 iu: 5.22E-01 rsn:   0
 50 2r: 1.68E-07 2x: 9.53E+05 2u: 1.31E+00 ir: 1.19E-07 iu: 5.22E-01 rsn:   0
  0 2r: 2.52E-06 2x: 0.00E+00 2u: 0.00E+00 ir: 1.27E-06 iu: 0.00E+00 rsn:   0
  1 2r: 4.75E-08 2x: 9.53E+05 2u: 4.22E+02 ir: 2.98E-08 iu: 2.47E+02 rsn:   0
  2 2r: 3.63E-10 2x: 9.53E+05 2u: 7.05E+00 ir: 2.56E-10 iu: 5.24E+00 rsn:   0
  3 2r: 1.51E-13 2x: 9.53E+05 2u: 4.39E-03 ir: 1.07E-13 iu: 2.99E-03 rsn: stol
 Step     66 Time=  4.06250E+00 Dt=  2.08333E-02 [hour] snes_conv_reason:    4
  newton =  53 [     609] linear =    53 [       609] cuts =  1 [   7]
  --> max chng: dpmx=   2.4185E+02

== RICHARDS FLOW ===============================================================
  0 2r: 2.53E-06 2x: 0.00E+00 2u: 0.00E+00 ir: 1.26E-06 iu: 0.00E+00 rsn:   0
  1 2r: 7.08E-08 2x: 9.53E+05 2u: 4.24E+02 ir: 3.94E-08 iu: 2.44E+02 rsn:   0
  2 2r: 1.58E-07 2x: 9.53E+05 2u: 7.23E+00 ir: 1.12E-07 iu: 5.33E+00 rsn:   0
  3 2r: 5.93E-08 2x: 9.53E+05 2u: 1.18E+00 ir: 4.20E-08 iu: 4.77E-01 rsn:   0
  4 2r: 1.58E-07 2x: 9.53E+05 2u: 1.18E+00 ir: 1.12E-07 iu: 4.77E-01 rsn:   0
  5 2r: 5.93E-08 2x: 9.53E+05 2u: 1.18E+00 ir: 4.20E-08 iu: 4.77E-01 rsn:   0
  6 2r: 1.58E-07 2x: 9.53E+05 2u: 1.18E+00 ir: 1.12E-07 iu: 4.77E-01 rsn:   0
  7 2r: 5.93E-08 2x: 9.53E+05 2u: 1.18E+00 ir: 4.20E-08 iu: 4.77E-01 rsn:   0
  8 2r: 1.58E-07 2x: 9.53E+05 2u: 1.18E+00 ir: 1.12E-07 iu: 4.77E-01 rsn:   0
  9 2r: 5.93E-08 2x: 9.53E+05 2u: 1.18E+00 ir: 4.20E-08 iu: 4.77E-01 rsn:   0
 10 2r: 1.58E-07 2x: 9.53E+05 2u: 1.18E+00 ir: 1.12E-07 iu: 4.77E-01 rsn:   0
 11 2r: 5.93E-08 2x: 9.53E+05 2u: 1.18E+00 ir: 4.20E-08 iu: 4.77E-01 rsn:   0
 12 2r: 1.58E-07 2x: 9.53E+05 2u: 1.18E+00 ir: 1.12E-07 iu: 4.77E-01 rsn:   0
 13 2r: 5.93E-08 2x: 9.53E+05 2u: 1.18E+00 ir: 4.20E-08 iu: 4.77E-01 rsn:   0
 14 2r: 1.58E-07 2x: 9.53E+05 2u: 1.18E+00 ir: 1.12E-07 iu: 4.77E-01 rsn:   0
 15 2r: 5.93E-08 2x: 9.53E+05 2u: 1.18E+00 ir: 4.20E-08 iu: 4.77E-01 rsn:   0
 16 2r: 1.58E-07 2x: 9.53E+05 2u: 1.18E+00 ir: 1.12E-07 iu: 4.77E-01 rsn:   0
 17 2r: 5.93E-08 2x: 9.53E+05 2u: 1.18E+00 ir: 4.20E-08 iu: 4.77E-01 rsn:   0
 18 2r: 1.58E-07 2x: 9.53E+05 2u: 1.18E+00 ir: 1.12E-07 iu: 4.77E-01 rsn:   0
 19 2r: 5.93E-08 2x: 9.53E+05 2u: 1.18E+00 ir: 4.20E-08 iu: 4.77E-01 rsn:   0
 20 2r: 1.58E-07 2x: 9.53E+05 2u: 1.18E+00 ir: 1.12E-07 iu: 4.77E-01 rsn:   0
 21 2r: 5.93E-08 2x: 9.53E+05 2u: 1.18E+00 ir: 4.20E-08 iu: 4.77E-01 rsn:   0
 22 2r: 1.58E-07 2x: 9.53E+05 2u: 1.18E+00 ir: 1.12E-07 iu: 4.77E-01 rsn:   0
 23 2r: 5.93E-08 2x: 9.53E+05 2u: 1.18E+00 ir: 4.20E-08 iu: 4.77E-01 rsn:   0
 24 2r: 1.58E-07 2x: 9.53E+05 2u: 1.18E+00 ir: 1.12E-07 iu: 4.77E-01 rsn:   0
 25 2r: 5.93E-08 2x: 9.53E+05 2u: 1.18E+00 ir: 4.20E-08 iu: 4.77E-01 rsn:   0
 26 2r: 1.58E-07 2x: 9.53E+05 2u: 1.18E+00 ir: 1.12E-07 iu: 4.77E-01 rsn:   0
 27 2r: 5.93E-08 2x: 9.53E+05 2u: 1.18E+00 ir: 4.20E-08 iu: 4.77E-01 rsn:   0
 28 2r: 1.58E-07 2x: 9.53E+05 2u: 1.18E+00 ir: 1.12E-07 iu: 4.77E-01 rsn:   0
 29 2r: 5.93E-08 2x: 9.53E+05 2u: 1.18E+00 ir: 4.20E-08 iu: 4.77E-01 rsn:   0
 30 2r: 1.58E-07 2x: 9.53E+05 2u: 1.18E+00 ir: 1.12E-07 iu: 4.77E-01 rsn:   0
 31 2r: 5.93E-08 2x: 9.53E+05 2u: 1.18E+00 ir: 4.20E-08 iu: 4.77E-01 rsn:   0
 32 2r: 1.58E-07 2x: 9.53E+05 2u: 1.18E+00 ir: 1.12E-07 iu: 4.77E-01 rsn:   0
 33 2r: 5.93E-08 2x: 9.53E+05 2u: 1.18E+00 ir: 4.20E-08 iu: 4.77E-01 rsn:   0
 34 2r: 1.58E-07 2x: 9.53E+05 2u: 1.18E+00 ir: 1.12E-07 iu: 4.77E-01 rsn:   0
 35 2r: 5.93E-08 2x: 9.53E+05 2u: 1.18E+00 ir: 4.20E-08 iu: 4.77E-01 rsn:   0
 36 2r: 1.58E-07 2x: 9.53E+05 2u: 1.18E+00 ir: 1.12E-07 iu: 4.77E-01 rsn:   0
 37 2r: 5.93E-08 2x: 9.53E+05 2u: 1.18E+00 ir: 4.20E-08 iu: 4.77E-01 rsn:   0
 38 2r: 1.58E-07 2x: 9.53E+05 2u: 1.18E+00 ir: 1.12E-07 iu: 4.77E-01 rsn:   0
 39 2r: 5.93E-08 2x: 9.53E+05 2u: 1.18E+00 ir: 4.20E-08 iu: 4.77E-01 rsn:   0
 40 2r: 1.58E-07 2x: 9.53E+05 2u: 1.18E+00 ir: 1.12E-07 iu: 4.77E-01 rsn:   0
 41 2r: 5.93E-08 2x: 9.53E+05 2u: 1.18E+00 ir: 4.20E-08 iu: 4.77E-01 rsn:   0
 42 2r: 1.58E-07 2x: 9.53E+05 2u: 1.18E+00 ir: 1.12E-07 iu: 4.77E-01 rsn:   0
 43 2r: 5.93E-08 2x: 9.53E+05 2u: 1.18E+00 ir: 4.20E-08 iu: 4.77E-01 rsn:   0
 44 2r: 1.58E-07 2x: 9.53E+05 2u: 1.18E+00 ir: 1.12E-07 iu: 4.77E-01 rsn:   0
 45 2r: 5.93E-08 2x: 9.53E+05 2u: 1.18E+00 ir: 4.20E-08 iu: 4.77E-01 rsn:   0
 46 2r: 1.58E-07 2x: 9.53E+05 2u: 1.18E+00 ir: 1.12E-07 iu: 4.77E-01 rsn:   0
 47 2r: 5.93E-08 2x: 9.53E+05 2u: 1.18E+00 ir: 4.20E-08 iu: 4.77E-01 rsn:   0
 48 2r: 1.58E-07 2x: 9.53E+05 2u: 1.18E+00 ir: 1.12E-07 iu: 4.77E-01 rsn:   0
 49 2r: 5.93E-08 2x: 9.53E+05 2u: 1.18E+00 ir: 4.20E-08 iu: 4.77E-01 rsn:   0
 50 2r: 1.58E-07 2x: 9.53E+05 2u: 1.18E+00 ir: 1.12E-07 iu: 4.77E-01 rsn:   0
  0 2r: 2.53E-06 2x: 0.00E+00 2u: 0.00E+00 ir: 1.26E-06 iu: 0.00E+00 rsn:   0
  1 2r: 2.22E-08 2x: 9.53E+05 2u: 2.08E+02 ir: 1.35E-08 iu: 1.20E+02 rsn:   0
  2 2r: 1.40E-10 2x: 9.53E+05 2u: 1.76E+00 ir: 9.88E-11 iu: 1.30E+00 rsn:   0
  3 2r: 4.10E-14 2x: 9.53E+05 2u: 8.17E-04 ir: 2.90E-14 iu: 3.22E-04 rsn: stol
 Step     67 Time=  4.07292E+00 Dt=  1.04167E-02 [hour] snes_conv_reason:    4
  newton =  53 [     662] linear =    53 [       662] cuts =  1 [   8]
  --> max chng: dpmx=   1.1918E+02

== RICHARDS FLOW ===============================================================
  0 2r: 2.53E-06 2x: 0.00E+00 2u: 0.00E+00 ir: 1.26E-06 iu: 0.00E+00 rsn:   0
  1 2r: 2.93E-08 2x: 9.53E+05 2u: 2.09E+02 ir: 1.47E-08 iu: 1.20E+02 rsn:   0
  2 2r: 3.17E-09 2x: 9.53E+05 2u: 1.78E+00 ir: 2.24E-09 iu: 1.30E+00 rsn:   0
  3 2r: 6.13E-11 2x: 9.53E+05 2u: 1.09E-02 ir: 4.33E-11 iu: 4.44E-03 rsn:   0
  4 2r: 2.21E-14 2x: 9.53E+05 2u: 2.19E-04 ir: 1.57E-14 iu: 8.90E-05 rsn: rtol
 Step     68 Time=  4.08333E+00 Dt=  1.04167E-02 [hour] snes_conv_reason:    3
  newton =   4 [     666] linear =     4 [       666] cuts =  0 [   8]
  --> max chng: dpmx=   1.1848E+02

== RICHARDS FLOW ===============================================================
  0 2r: 2.53E-06 2x: 0.00E+00 2u: 0.00E+00 ir: 1.25E-06 iu: 0.00E+00 rsn:   0
  1 2r: 2.31E-08 2x: 9.53E+05 2u: 2.10E+02 ir: 1.43E-08 iu: 1.19E+02 rsn:   0
  2 2r: 2.44E-12 2x: 9.53E+05 2u: 1.80E+00 ir: 2.13E-12 iu: 1.30E+00 rsn:   0
  3 2r: 3.56E-18 2x: 9.53E+05 2u: 1.96E-04 ir: 1.57E-18 iu: 1.79E-04 rsn: rtol
 Step     69 Time=  4.09375E+00 Dt=  1.04167E-02 [hour] snes_conv_reason:    3
  newton =   3 [     669] linear =     3 [       669] cuts =  0 [   8]
  --> max chng: dpmx=   1.1751E+02

== RICHARDS FLOW ===============================================================
  0 2r: 2.53E-06 2x: 0.00E+00 2u: 0.00E+00 ir: 1.25E-06 iu: 0.00E+00 rsn:   0
  1 2r: 2.12E-08 2x: 9.53E+05 2u: 2.10E+02 ir: 1.46E-08 iu: 1.18E+02 rsn:   0
  2 2r: 2.44E-12 2x: 9.53E+05 2u: 1.81E+00 ir: 2.20E-12 iu: 1.29E+00 rsn:   0
  3 2r: 5.01E-18 2x: 9.53E+05 2u: 1.96E-04 ir: 2.71E-18 iu: 1.79E-04 rsn: rtol
[...]
  0 2r: 7.83E-18 2x: 0.00E+00 2u: 0.00E+00 ir: 1.82E-18 iu: 0.00E+00 rsn:   0
  1 2r: 7.83E-18 2x: 1.07E+06 2u: 4.29E-11 ir: 1.82E-18 iu: 7.24E-12 rsn: stol
 Step    631 Time=  2.11667E+01 Dt=  8.33333E-02 [hour] snes_conv_reason:    4
  newton =   1 [    7949] linear =     1 [      7949] cuts =  0 [ 121]
  --> max chng: dpmx=   0.0000E+00

== RICHARDS FLOW ===============================================================
  0 2r: 7.83E-18 2x: 0.00E+00 2u: 0.00E+00 ir: 1.82E-18 iu: 0.00E+00 rsn:   0
  1 2r: 7.83E-18 2x: 1.07E+06 2u: 4.29E-11 ir: 1.82E-18 iu: 7.24E-12 rsn: stol
 Step    632 Time=  2.12500E+01 Dt=  8.33333E-02 [hour] snes_conv_reason:    4
  newton =   1 [    7950] linear =     1 [      7950] cuts =  0 [ 121]
  --> max chng: dpmx=   0.0000E+00

== RICHARDS FLOW ===============================================================
  0 2r: 7.83E-18 2x: 0.00E+00 2u: 0.00E+00 ir: 1.82E-18 iu: 0.00E+00 rsn:   0
  1 2r: 7.83E-18 2x: 1.07E+06 2u: 4.29E-11 ir: 1.82E-18 iu: 7.24E-12 rsn: stol
 Step    633 Time=  2.13333E+01 Dt=  8.33333E-02 [hour] snes_conv_reason:    4
  newton =   1 [    7951] linear =     1 [      7951] cuts =  0 [ 121]
  --> max chng: dpmx=   0.0000E+00

== RICHARDS FLOW ===============================================================
  0 2r: 7.83E-18 2x: 0.00E+00 2u: 0.00E+00 ir: 1.82E-18 iu: 0.00E+00 rsn:   0
  1 2r: 7.83E-18 2x: 1.07E+06 2u: 4.29E-11 ir: 1.82E-18 iu: 7.24E-12 rsn: stol
 Step    634 Time=  2.14167E+01 Dt=  8.33333E-02 [hour] snes_conv_reason:    4
  newton =   1 [    7952] linear =     1 [      7952] cuts =  0 [ 121]
  --> max chng: dpmx=   0.0000E+00

== RICHARDS FLOW ===============================================================
  0 2r: 7.83E-18 2x: 0.00E+00 2u: 0.00E+00 ir: 1.82E-18 iu: 0.00E+00 rsn:   0
  1 2r: 7.83E-18 2x: 1.07E+06 2u: 4.29E-11 ir: 1.82E-18 iu: 7.24E-12 rsn: stol
 Step    635 Time=  2.15000E+01 Dt=  8.33333E-02 [hour] snes_conv_reason:    4
  newton =   1 [    7953] linear =     1 [      7953] cuts =  0 [ 121]
  --> max chng: dpmx=   0.0000E+00

== RICHARDS FLOW ===============================================================
  0 2r: 7.83E-18 2x: 0.00E+00 2u: 0.00E+00 ir: 1.82E-18 iu: 0.00E+00 rsn:   0
  1 2r: 7.83E-18 2x: 1.07E+06 2u: 4.29E-11 ir: 1.82E-18 iu: 7.24E-12 rsn: stol
 Step    636 Time=  2.15833E+01 Dt=  8.33333E-02 [hour] snes_conv_reason:    4
  newton =   1 [    7954] linear =     1 [      7954] cuts =  0 [ 121]
  --> max chng: dpmx=   0.0000E+00

== RICHARDS FLOW ===============================================================
  0 2r: 7.83E-18 2x: 0.00E+00 2u: 0.00E+00 ir: 1.82E-18 iu: 0.00E+00 rsn:   0
  1 2r: 7.83E-18 2x: 1.07E+06 2u: 4.29E-11 ir: 1.82E-18 iu: 7.24E-12 rsn: stol
 Step    637 Time=  2.16667E+01 Dt=  8.33333E-02 [hour] snes_conv_reason:    4
  newton =   1 [    7955] linear =     1 [      7955] cuts =  0 [ 121]
  --> max chng: dpmx=   0.0000E+00

== RICHARDS FLOW ===============================================================
  0 2r: 7.83E-18 2x: 0.00E+00 2u: 0.00E+00 ir: 1.82E-18 iu: 0.00E+00 rsn:   0
  1 2r: 7.83E-18 2x: 1.07E+06 2u: 4.29E-11 ir: 1.82E-18 iu: 7.24E-12 rsn: stol
 Step    638 Time=  2.17500E+01 Dt=  8.33333E-02 [hour] snes_conv_reason:    4
  newton =   1 [    7956] linear =     1 [      7956] cuts =  0 [ 121]
  --> max chng: dpmx=   0.0000E+00

== RICHARDS FLOW ===============================================================
  0 2r: 7.83E-18 2x: 0.00E+00 2u: 0.00E+00 ir: 1.82E-18 iu: 0.00E+00 rsn:   0
  1 2r: 7.83E-18 2x: 1.07E+06 2u: 4.29E-11 ir: 1.82E-18 iu: 7.24E-12 rsn: stol
 Step    639 Time=  2.18333E+01 Dt=  8.33333E-02 [hour] snes_conv_reason:    4
  newton =   1 [    7957] linear =     1 [      7957] cuts =  0 [ 121]
  --> max chng: dpmx=   0.0000E+00

== RICHARDS FLOW ===============================================================
  0 2r: 7.83E-18 2x: 0.00E+00 2u: 0.00E+00 ir: 1.82E-18 iu: 0.00E+00 rsn:   0
  1 2r: 7.83E-18 2x: 1.07E+06 2u: 4.29E-11 ir: 1.82E-18 iu: 7.24E-12 rsn: stol
 Step    640 Time=  2.19167E+01 Dt=  8.33333E-02 [hour] snes_conv_reason:    4
  newton =   1 [    7958] linear =     1 [      7958] cuts =  0 [ 121]
  --> max chng: dpmx=   0.0000E+00

== RICHARDS FLOW ===============================================================
  0 2r: 7.83E-18 2x: 0.00E+00 2u: 0.00E+00 ir: 1.82E-18 iu: 0.00E+00 rsn:   0
  1 2r: 7.83E-18 2x: 1.07E+06 2u: 4.29E-11 ir: 1.82E-18 iu: 7.24E-12 rsn: stol
 Step    641 Time=  2.20000E+01 Dt=  8.33333E-02 [hour] snes_conv_reason:    4
  newton =   1 [    7959] linear =     1 [      7959] cuts =  0 [ 121]
  --> max chng: dpmx=   0.0000E+00

== RICHARDS FLOW ===============================================================
  0 2r: 7.83E-18 2x: 0.00E+00 2u: 0.00E+00 ir: 1.82E-18 iu: 0.00E+00 rsn:   0
  1 2r: 7.83E-18 2x: 1.07E+06 2u: 4.29E-11 ir: 1.82E-18 iu: 7.24E-12 rsn: stol
 Step    642 Time=  2.20833E+01 Dt=  8.33333E-02 [hour] snes_conv_reason:    4
  newton =   1 [    7960] linear =     1 [      7960] cuts =  0 [ 121]
  --> max chng: dpmx=   0.0000E+00

== RICHARDS FLOW ===============================================================
  0 2r: 7.83E-18 2x: 0.00E+00 2u: 0.00E+00 ir: 1.82E-18 iu: 0.00E+00 rsn:   0
  1 2r: 7.83E-18 2x: 1.07E+06 2u: 4.29E-11 ir: 1.82E-18 iu: 7.24E-12 rsn: stol
 Step    643 Time=  2.21667E+01 Dt=  8.33333E-02 [hour] snes_conv_reason:    4
  newton =   1 [    7961] linear =     1 [      7961] cuts =  0 [ 121]
  --> max chng: dpmx=   0.0000E+00

== RICHARDS FLOW ===============================================================
  0 2r: 7.83E-18 2x: 0.00E+00 2u: 0.00E+00 ir: 1.82E-18 iu: 0.00E+00 rsn:   0
  1 2r: 7.83E-18 2x: 1.07E+06 2u: 4.29E-11 ir: 1.82E-18 iu: 7.24E-12 rsn: stol
 Step    644 Time=  2.22500E+01 Dt=  8.33333E-02 [hour] snes_conv_reason:    4
  newton =   1 [    7962] linear =     1 [      7962] cuts =  0 [ 121]
  --> max chng: dpmx=   0.0000E+00

== RICHARDS FLOW ===============================================================
  0 2r: 7.83E-18 2x: 0.00E+00 2u: 0.00E+00 ir: 1.82E-18 iu: 0.00E+00 rsn:   0
  1 2r: 7.83E-18 2x: 1.07E+06 2u: 4.29E-11 ir: 1.82E-18 iu: 7.24E-12 rsn: stol
 Step    645 Time=  2.23333E+01 Dt=  8.33333E-02 [hour] snes_conv_reason:    4
  newton =   1 [    7963] linear =     1 [      7963] cuts =  0 [ 121]
  --> max chng: dpmx=   0.0000E+00

== RICHARDS FLOW ===============================================================
  0 2r: 7.83E-18 2x: 0.00E+00 2u: 0.00E+00 ir: 1.82E-18 iu: 0.00E+00 rsn:   0
  1 2r: 7.83E-18 2x: 1.07E+06 2u: 4.29E-11 ir: 1.82E-18 iu: 7.24E-12 rsn: stol
 Step    646 Time=  2.24167E+01 Dt=  8.33333E-02 [hour] snes_conv_reason:    4
  newton =   1 [    7964] linear =     1 [      7964] cuts =  0 [ 121]
  --> max chng: dpmx=   0.0000E+00

== RICHARDS FLOW ===============================================================
  0 2r: 7.83E-18 2x: 0.00E+00 2u: 0.00E+00 ir: 1.82E-18 iu: 0.00E+00 rsn:   0
  1 2r: 7.83E-18 2x: 1.07E+06 2u: 4.29E-11 ir: 1.82E-18 iu: 7.24E-12 rsn: stol
 Step    647 Time=  2.25000E+01 Dt=  8.33333E-02 [hour] snes_conv_reason:    4
  newton =   1 [    7965] linear =     1 [      7965] cuts =  0 [ 121]
  --> max chng: dpmx=   0.0000E+00

== RICHARDS FLOW ===============================================================
  0 2r: 7.83E-18 2x: 0.00E+00 2u: 0.00E+00 ir: 1.82E-18 iu: 0.00E+00 rsn:   0
  1 2r: 7.83E-18 2x: 1.07E+06 2u: 4.29E-11 ir: 1.82E-18 iu: 7.24E-12 rsn: stol
 Step    648 Time=  2.25833E+01 Dt=  8.33333E-02 [hour] snes_conv_reason:    4
  newton =   1 [    7966] linear =     1 [      7966] cuts =  0 [ 121]
  --> max chng: dpmx=   0.0000E+00

== RICHARDS FLOW ===============================================================
  0 2r: 7.83E-18 2x: 0.00E+00 2u: 0.00E+00 ir: 1.82E-18 iu: 0.00E+00 rsn:   0
  1 2r: 7.83E-18 2x: 1.07E+06 2u: 4.29E-11 ir: 1.82E-18 iu: 7.24E-12 rsn: stol
 Step    649 Time=  2.26667E+01 Dt=  8.33333E-02 [hour] snes_conv_reason:    4
  newton =   1 [    7967] linear =     1 [      7967] cuts =  0 [ 121]
  --> max chng: dpmx=   0.0000E+00

== RICHARDS FLOW ===============================================================
  0 2r: 7.83E-18 2x: 0.00E+00 2u: 0.00E+00 ir: 1.82E-18 iu: 0.00E+00 rsn:   0
  1 2r: 7.83E-18 2x: 1.07E+06 2u: 4.29E-11 ir: 1.82E-18 iu: 7.24E-12 rsn: stol
 Step    650 Time=  2.27500E+01 Dt=  8.33333E-02 [hour] snes_conv_reason:    4
  newton =   1 [    7968] linear =     1 [      7968] cuts =  0 [ 121]
  --> max chng: dpmx=   0.0000E+00

== RICHARDS FLOW ===============================================================
  0 2r: 7.83E-18 2x: 0.00E+00 2u: 0.00E+00 ir: 1.82E-18 iu: 0.00E+00 rsn:   0
  1 2r: 7.83E-18 2x: 1.07E+06 2u: 4.29E-11 ir: 1.82E-18 iu: 7.24E-12 rsn: stol
 Step    651 Time=  2.28333E+01 Dt=  8.33333E-02 [hour] snes_conv_reason:    4
  newton =   1 [    7969] linear =     1 [      7969] cuts =  0 [ 121]
  --> max chng: dpmx=   0.0000E+00

== RICHARDS FLOW ===============================================================
  0 2r: 7.83E-18 2x: 0.00E+00 2u: 0.00E+00 ir: 1.82E-18 iu: 0.00E+00 rsn:   0
  1 2r: 7.83E-18 2x: 1.07E+06 2u: 4.29E-11 ir: 1.82E-18 iu: 7.24E-12 rsn: stol
 Step    652 Time=  2.29167E+01 Dt=  8.33333E-02 [hour] snes_conv_reason:    4
  newton =   1 [    7970] linear =     1 [      7970] cuts =  0 [ 121]
  --> max chng: dpmx=   0.0000E+00

== RICHARDS FLOW ===============================================================
  0 2r: 7.83E-18 2x: 0.00E+00 2u: 0.00E+00 ir: 1.82E-18 iu: 0.00E+00 rsn:   0
  1 2r: 7.83E-18 2x: 1.07E+06 2u: 4.29E-11 ir: 1.82E-18 iu: 7.24E-12 rsn: stol
 Step    653 Time=  2.30000E+01 Dt=  8.33333E-02 [hour] snes_conv_reason:    4
  newton =   1 [    7971] linear =     1 [      7971] cuts =  0 [ 121]
  --> max chng: dpmx=   0.0000E+00

== RICHARDS FLOW ===============================================================
  0 2r: 7.83E-18 2x: 0.00E+00 2u: 0.00E+00 ir: 1.82E-18 iu: 0.00E+00 rsn:   0
  1 2r: 7.83E-18 2x: 1.07E+06 2u: 4.29E-11 ir: 1.82E-18 iu: 7.24E-12 rsn: stol
 Step    654 Time=  2.30833E+01 Dt=  8.33333E-02 [hour] snes_conv_reason:    4
  newton =   1 [    7972] linear =     1 [      7972] cuts =  0 [ 121]
  --> max chng: dpmx=   0.0000E+00

== RICHARDS FLOW ===============================================================
  0 2r: 7.83E-18 2x: 0.00E+00 2u: 0.00E+00 ir: 1.82E-18 iu: 0.00E+00 rsn:   0
  1 2r: 7.83E-18 2x: 1.07E+06 2u: 4.29E-11 ir: 1.82E-18 iu: 7.24E-12 rsn: stol
 Step    655 Time=  2.31667E+01 Dt=  8.33333E-02 [hour] snes_conv_reason:    4
  newton =   1 [    7973] linear =     1 [      7973] cuts =  0 [ 121]
  --> max chng: dpmx=   0.0000E+00

== RICHARDS FLOW ===============================================================
  0 2r: 7.83E-18 2x: 0.00E+00 2u: 0.00E+00 ir: 1.82E-18 iu: 0.00E+00 rsn:   0
  1 2r: 7.83E-18 2x: 1.07E+06 2u: 4.29E-11 ir: 1.82E-18 iu: 7.24E-12 rsn: stol
 Step    656 Time=  2.32500E+01 Dt=  8.33333E-02 [hour] snes_conv_reason:    4
  newton =   1 [    7974] linear =     1 [      7974] cuts =  0 [ 121]
  --> max chng: dpmx=   0.0000E+00

== RICHARDS FLOW ===============================================================
  0 2r: 7.83E-18 2x: 0.00E+00 2u: 0.00E+00 ir: 1.82E-18 iu: 0.00E+00 rsn:   0
  1 2r: 7.83E-18 2x: 1.07E+06 2u: 4.29E-11 ir: 1.82E-18 iu: 7.24E-12 rsn: stol
 Step    657 Time=  2.33333E+01 Dt=  8.33333E-02 [hour] snes_conv_reason:    4
  newton =   1 [    7975] linear =     1 [      7975] cuts =  0 [ 121]
  --> max chng: dpmx=   0.0000E+00

== RICHARDS FLOW ===============================================================
  0 2r: 7.83E-18 2x: 0.00E+00 2u: 0.00E+00 ir: 1.82E-18 iu: 0.00E+00 rsn:   0
  1 2r: 7.83E-18 2x: 1.07E+06 2u: 4.29E-11 ir: 1.82E-18 iu: 7.24E-12 rsn: stol
 Step    658 Time=  2.34167E+01 Dt=  8.33333E-02 [hour] snes_conv_reason:    4
  newton =   1 [    7976] linear =     1 [      7976] cuts =  0 [ 121]
  --> max chng: dpmx=   0.0000E+00

== RICHARDS FLOW ===============================================================
  0 2r: 7.83E-18 2x: 0.00E+00 2u: 0.00E+00 ir: 1.82E-18 iu: 0.00E+00 rsn:   0
  1 2r: 7.83E-18 2x: 1.07E+06 2u: 4.29E-11 ir: 1.82E-18 iu: 7.24E-12 rsn: stol
 Step    659 Time=  2.35000E+01 Dt=  8.33333E-02 [hour] snes_conv_reason:    4
  newton =   1 [    7977] linear =     1 [      7977] cuts =  0 [ 121]
  --> max chng: dpmx=   0.0000E+00

== RICHARDS FLOW ===============================================================
  0 2r: 7.83E-18 2x: 0.00E+00 2u: 0.00E+00 ir: 1.82E-18 iu: 0.00E+00 rsn:   0
  1 2r: 7.83E-18 2x: 1.07E+06 2u: 4.29E-11 ir: 1.82E-18 iu: 7.24E-12 rsn: stol
 Step    660 Time=  2.35833E+01 Dt=  8.33333E-02 [hour] snes_conv_reason:    4
  newton =   1 [    7978] linear =     1 [      7978] cuts =  0 [ 121]
  --> max chng: dpmx=   0.0000E+00

== RICHARDS FLOW ===============================================================
  0 2r: 7.83E-18 2x: 0.00E+00 2u: 0.00E+00 ir: 1.82E-18 iu: 0.00E+00 rsn:   0
  1 2r: 7.83E-18 2x: 1.07E+06 2u: 4.29E-11 ir: 1.82E-18 iu: 7.24E-12 rsn: stol
 Step    661 Time=  2.36667E+01 Dt=  8.33333E-02 [hour] snes_conv_reason:    4
  newton =   1 [    7979] linear =     1 [      7979] cuts =  0 [ 121]
  --> max chng: dpmx=   0.0000E+00

== RICHARDS FLOW ===============================================================
  0 2r: 7.83E-18 2x: 0.00E+00 2u: 0.00E+00 ir: 1.82E-18 iu: 0.00E+00 rsn:   0
  1 2r: 7.83E-18 2x: 1.07E+06 2u: 4.29E-11 ir: 1.82E-18 iu: 7.24E-12 rsn: stol
 Step    662 Time=  2.37500E+01 Dt=  8.33333E-02 [hour] snes_conv_reason:    4
  newton =   1 [    7980] linear =     1 [      7980] cuts =  0 [ 121]
  --> max chng: dpmx=   0.0000E+00

== RICHARDS FLOW ===============================================================
  0 2r: 7.83E-18 2x: 0.00E+00 2u: 0.00E+00 ir: 1.82E-18 iu: 0.00E+00 rsn:   0
  1 2r: 7.83E-18 2x: 1.07E+06 2u: 4.29E-11 ir: 1.82E-18 iu: 7.24E-12 rsn: stol
 Step    663 Time=  2.38333E+01 Dt=  8.33333E-02 [hour] snes_conv_reason:    4
  newton =   1 [    7981] linear =     1 [      7981] cuts =  0 [ 121]
  --> max chng: dpmx=   0.0000E+00

== RICHARDS FLOW ===============================================================
  0 2r: 7.83E-18 2x: 0.00E+00 2u: 0.00E+00 ir: 1.82E-18 iu: 0.00E+00 rsn:   0
  1 2r: 7.83E-18 2x: 1.07E+06 2u: 4.29E-11 ir: 1.82E-18 iu: 7.24E-12 rsn: stol
 Step    664 Time=  2.39167E+01 Dt=  8.33333E-02 [hour] snes_conv_reason:    4
  newton =   1 [    7982] linear =     1 [      7982] cuts =  0 [ 121]
  --> max chng: dpmx=   0.0000E+00

== RICHARDS FLOW ===============================================================
  0 2r: 7.83E-18 2x: 0.00E+00 2u: 0.00E+00 ir: 1.82E-18 iu: 0.00E+00 rsn:   0
  1 2r: 7.83E-18 2x: 1.07E+06 2u: 4.29E-11 ir: 1.82E-18 iu: 7.24E-12 rsn: stol
 Step    665 Time=  2.40000E+01 Dt=  8.33333E-02 [hour] snes_conv_reason:    4
  newton =   1 [    7983] linear =     1 [      7983] cuts =  0 [ 121]
  --> max chng: dpmx=   0.0000E+00

== RICHARDS FLOW ===============================================================
  0 2r: 7.83E-18 2x: 0.00E+00 2u: 0.00E+00 ir: 1.82E-18 iu: 0.00E+00 rsn:   0
  1 2r: 7.83E-18 2x: 1.07E+06 2u: 4.29E-11 ir: 1.82E-18 iu: 7.24E-12 rsn: stol
 Step    666 Time=  2.40833E+01 Dt=  8.33333E-02 [hour] snes_conv_reason:    4
  newton =   1 [    7984] linear =     1 [      7984] cuts =  0 [ 121]
  --> max chng: dpmx=   0.0000E+00

== RICHARDS FLOW ===============================================================
  0 2r: 7.83E-18 2x: 0.00E+00 2u: 0.00E+00 ir: 1.82E-18 iu: 0.00E+00 rsn:   0
  1 2r: 7.83E-18 2x: 1.07E+06 2u: 4.29E-11 ir: 1.82E-18 iu: 7.24E-12 rsn: stol
 Step    667 Time=  2.41667E+01 Dt=  8.33333E-02 [hour] snes_conv_reason:    4
  newton =   1 [    7985] linear =     1 [      7985] cuts =  0 [ 121]
  --> max chng: dpmx=   0.0000E+00

== RICHARDS FLOW ===============================================================
  0 2r: 7.83E-18 2x: 0.00E+00 2u: 0.00E+00 ir: 1.82E-18 iu: 0.00E+00 rsn:   0
  1 2r: 7.83E-18 2x: 1.07E+06 2u: 4.29E-11 ir: 1.82E-18 iu: 7.24E-12 rsn: stol
 Step    668 Time=  2.42500E+01 Dt=  8.33333E-02 [hour] snes_conv_reason:    4
  newton =   1 [    7986] linear =     1 [      7986] cuts =  0 [ 121]
  --> max chng: dpmx=   0.0000E+00

== RICHARDS FLOW ===============================================================
  0 2r: 7.83E-18 2x: 0.00E+00 2u: 0.00E+00 ir: 1.82E-18 iu: 0.00E+00 rsn:   0
  1 2r: 7.83E-18 2x: 1.07E+06 2u: 4.29E-11 ir: 1.82E-18 iu: 7.24E-12 rsn: stol
 Step    669 Time=  2.43333E+01 Dt=  8.33333E-02 [hour] snes_conv_reason:    4
  newton =   1 [    7987] linear =     1 [      7987] cuts =  0 [ 121]
  --> max chng: dpmx=   0.0000E+00

== RICHARDS FLOW ===============================================================
  0 2r: 7.83E-18 2x: 0.00E+00 2u: 0.00E+00 ir: 1.82E-18 iu: 0.00E+00 rsn:   0
  1 2r: 7.83E-18 2x: 1.07E+06 2u: 4.29E-11 ir: 1.82E-18 iu: 7.24E-12 rsn: stol
 Step    670 Time=  2.44167E+01 Dt=  8.33333E-02 [hour] snes_conv_reason:    4
  newton =   1 [    7988] linear =     1 [      7988] cuts =  0 [ 121]
  --> max chng: dpmx=   0.0000E+00

== RICHARDS FLOW ===============================================================
  0 2r: 7.83E-18 2x: 0.00E+00 2u: 0.00E+00 ir: 1.82E-18 iu: 0.00E+00 rsn:   0
  1 2r: 7.83E-18 2x: 1.07E+06 2u: 4.29E-11 ir: 1.82E-18 iu: 7.24E-12 rsn: stol
 Step    671 Time=  2.45000E+01 Dt=  8.33333E-02 [hour] snes_conv_reason:    4
  newton =   1 [    7989] linear =     1 [      7989] cuts =  0 [ 121]
  --> max chng: dpmx=   0.0000E+00

== RICHARDS FLOW ===============================================================
  0 2r: 7.83E-18 2x: 0.00E+00 2u: 0.00E+00 ir: 1.82E-18 iu: 0.00E+00 rsn:   0
  1 2r: 7.83E-18 2x: 1.07E+06 2u: 4.29E-11 ir: 1.82E-18 iu: 7.24E-12 rsn: stol
 Step    672 Time=  2.45833E+01 Dt=  8.33333E-02 [hour] snes_conv_reason:    4
  newton =   1 [    7990] linear =     1 [      7990] cuts =  0 [ 121]
  --> max chng: dpmx=   0.0000E+00

== RICHARDS FLOW ===============================================================
  0 2r: 7.83E-18 2x: 0.00E+00 2u: 0.00E+00 ir: 1.82E-18 iu: 0.00E+00 rsn:   0
  1 2r: 7.83E-18 2x: 1.07E+06 2u: 4.29E-11 ir: 1.82E-18 iu: 7.24E-12 rsn: stol
 Step    673 Time=  2.46667E+01 Dt=  8.33333E-02 [hour] snes_conv_reason:    4
  newton =   1 [    7991] linear =     1 [      7991] cuts =  0 [ 121]
  --> max chng: dpmx=   0.0000E+00

== RICHARDS FLOW ===============================================================
  0 2r: 7.83E-18 2x: 0.00E+00 2u: 0.00E+00 ir: 1.82E-18 iu: 0.00E+00 rsn:   0
  1 2r: 7.83E-18 2x: 1.07E+06 2u: 4.29E-11 ir: 1.82E-18 iu: 7.24E-12 rsn: stol
 Step    674 Time=  2.47500E+01 Dt=  8.33333E-02 [hour] snes_conv_reason:    4
  newton =   1 [    7992] linear =     1 [      7992] cuts =  0 [ 121]
  --> max chng: dpmx=   0.0000E+00

== RICHARDS FLOW ===============================================================
  0 2r: 7.83E-18 2x: 0.00E+00 2u: 0.00E+00 ir: 1.82E-18 iu: 0.00E+00 rsn:   0
  1 2r: 7.83E-18 2x: 1.07E+06 2u: 4.29E-11 ir: 1.82E-18 iu: 7.24E-12 rsn: stol
 Step    675 Time=  2.48333E+01 Dt=  8.33333E-02 [hour] snes_conv_reason:    4
  newton =   1 [    7993] linear =     1 [      7993] cuts =  0 [ 121]
  --> max chng: dpmx=   0.0000E+00

== RICHARDS FLOW ===============================================================
  0 2r: 7.83E-18 2x: 0.00E+00 2u: 0.00E+00 ir: 1.82E-18 iu: 0.00E+00 rsn:   0
  1 2r: 7.83E-18 2x: 1.07E+06 2u: 4.29E-11 ir: 1.82E-18 iu: 7.24E-12 rsn: stol
 Step    676 Time=  2.49167E+01 Dt=  8.33333E-02 [hour] snes_conv_reason:    4
  newton =   1 [    7994] linear =     1 [      7994] cuts =  0 [ 121]
  --> max chng: dpmx=   0.0000E+00

== RICHARDS FLOW ===============================================================
  0 2r: 7.83E-18 2x: 0.00E+00 2u: 0.00E+00 ir: 1.82E-18 iu: 0.00E+00 rsn:   0
  1 2r: 7.83E-18 2x: 1.07E+06 2u: 4.29E-11 ir: 1.82E-18 iu: 7.24E-12 rsn: stol
 Step    677 Time=  2.50000E+01 Dt=  8.33333E-02 [hour] snes_conv_reason:    4
  newton =   1 [    7995] linear =     1 [      7995] cuts =  0 [ 121]
  --> max chng: dpmx=   0.0000E+00

 Wall Clock Time:  2.7270E+00 [sec]   4.5450E-02 [min]   7.5751E-04 [hr]
