
=================
  PFLOTRAN v4.0
=================

 Extent of Gridded Domain
  X: 0.0000000000000000 - 0.20000000000000001
  Y: 0.0000000000000000 - 0.20000000000000001
  Z: -1.0000000000000000 - 0.0000000000000000


=+=+=+=+=+=+=+=+=+=+=+=+=+=+=+=+=+=+=+=+=+=+=+=+=+=+=+=+=+=+=+=+=+=+=+=+=+=+=+=+

  Initial Condition

--------------------------------------------------------------------------------
          Flow Condition:   initial
                  Region:   all
--------------------------------------------------------------------------------

  Flow Condition: initial
    Synchronize time with update: no
    Time units: yr
    Length units: m
      Datum:
        Dataset: Unnamed Ascii Dataset
          Type: dataset_ascii_type
          Transient: no
          Array Rank:  3

    Sub Condition: pressure
      Type: dirichlet
      Gradient:
      Data:
        Dataset: Unnamed Ascii Dataset
          Type: dataset_ascii_type
          Transient: no
          Array Rank:  1

--------------------------------------------------------------------------------

=+=+=+=+=+=+=+=+=+=+=+=+=+=+=+=+=+=+=+=+=+=+=+=+=+=+=+=+=+=+=+=+=+=+=+=+=+=+=+=+

  Boundary Condition

--------------------------------------------------------------------------------
          Flow Condition:   top_bc
                  Region:   top
--------------------------------------------------------------------------------

  Flow Condition: top_bc
    Synchronize time with update: no
    Time units: yr
    Length units: m
      Datum:

    Sub Condition: pressure
      Type: dirichlet
      Gradient:
      Data:
        Dataset: Unnamed Ascii Dataset
          Type: dataset_ascii_type
          Transient: no
          Array Rank:  1

--------------------------------------------------------------------------------

 Requested processors and decomposition =     1, npx,y,z=   -1  -1  -1
 Actual decomposition: npx,y,z=    1   1   1


FLOW Time Stepper
acceleration: on
acceleration threshold: 5
number of ramp entries: 5
ramp entry #1: 2.0000
ramp entry #2: 2.0000
ramp entry #3: 2.0000
ramp entry #4: 2.0000
ramp entry #5: 2.0000
ramp entry #6: 1.8000
ramp entry #7: 1.6000
ramp entry #8: 1.4000
ramp entry #9: 1.2000
ramp entry #10: 1.0000
ramp entry #11: 1.0000
ramp entry #12: 1.0000
ramp entry #13: 1.0000
maximum number of steps: 999999
constant time steps threshold: 5
maximum number of cuts: 16
reduction factor: 5.000000E-01
maximum growth factor: 2.000000E+00

FLOW Newton Solver
atol: 1.000000E-50
rtol: 1.000000E-08
stol: 1.000000E-08
dtol: 1.000000E+04
maxnorm: 1.000000E+20
inftolres: -9.990000E+02
inftolupd: -9.990000E+02
inftolrelupd: -9.990000E+02
inftolsclres: -9.990000E+02
max iter: 50
min iter: 1
maxf: 10000
matrix type: baij
precond. matrix type: baij
inexact newton: off
print convergence: on
print detailed convergence: off
check infinity norm: on

FLOW Linear Solver
solver: bcgs
preconditioner: ilu
atol: 1.000000E-50
rtol: 1.000000E-05
dtol: 1.000000E+04
maximum iteration: 10000

== RICHARDS FLOW ===============================================================
  0 2r: 1.47E-03 2x: 0.00E+00 2u: 0.00E+00 ir: 1.47E-03 iu: 0.00E+00 rsn:   0
  1 2r: 8.04E-04 2x: 9.21E+05 2u: 9.75E+03 ir: 5.88E-04 iu: 9.75E+03 rsn:   0
  2 2r: 3.44E-04 2x: 9.21E+05 2u: 1.93E+03 ir: 2.43E-04 iu: 1.90E+03 rsn:   0
  3 2r: 4.09E-05 2x: 9.22E+05 2u: 4.87E+03 ir: 3.63E-05 iu: 4.82E+03 rsn:   0
  4 2r: 3.67E-06 2x: 9.22E+05 2u: 2.62E+03 ir: 2.60E-06 iu: 2.61E+03 rsn:   0
  5 2r: 5.72E-08 2x: 9.22E+05 2u: 2.97E+02 ir: 5.21E-08 iu: 2.74E+02 rsn:   0
  6 2r: 4.41E-11 2x: 9.22E+05 2u: 8.54E+00 ir: 4.25E-11 iu: 6.82E+00 rsn:   0
  7 2r: 2.36E-17 2x: 9.22E+05 2u: 5.56E-03 ir: 2.22E-17 iu: 5.28E-03 rsn: rtol
 Step      1 Time=  1.66667E-02 Dt=  1.66667E-02 [hour] snes_conv_reason:    3
  newton =   7 [       7] linear =     7 [         7] cuts =  0 [   0]
  --> max chng: dpmx=   9.1626E+03

== RICHARDS FLOW ===============================================================
  0 2r: 7.64E-05 2x: 0.00E+00 2u: 0.00E+00 ir: 6.41E-05 iu: 0.00E+00 rsn:   0
  1 2r: 1.39E-05 2x: 9.22E+05 2u: 1.82E+03 ir: 1.28E-05 iu: 1.41E+03 rsn:   0
  2 2r: 4.90E-07 2x: 9.22E+05 2u: 1.36E+02 ir: 3.67E-07 iu: 1.22E+02 rsn:   0
  3 2r: 5.44E-10 2x: 9.22E+05 2u: 8.73E+00 ir: 4.76E-10 iu: 7.93E+00 rsn:   0
  4 2r: 9.18E-16 2x: 9.22E+05 2u: 7.83E-03 ir: 7.20E-16 iu: 4.85E-03 rsn: rtol
 Step      2 Time=  2.21667E-02 Dt=  5.50000E-03 [hour] snes_conv_reason:    3
  newton =   4 [      11] linear =     4 [        11] cuts =  0 [   0]
  --> max chng: dpmx=   1.4033E+03

== RICHARDS FLOW ===============================================================
  0 2r: 4.11E-05 2x: 0.00E+00 2u: 0.00E+00 ir: 3.27E-05 iu: 0.00E+00 rsn:   0
  1 2r: 2.47E-05 2x: 9.23E+05 2u: 3.06E+03 ir: 2.22E-05 iu: 2.65E+03 rsn:   0
  2 2r: 3.77E-06 2x: 9.23E+05 2u: 5.45E+02 ir: 3.03E-06 iu: 5.19E+02 rsn:   0
  3 2r: 7.40E-08 2x: 9.23E+05 2u: 1.84E+02 ir: 6.55E-08 iu: 1.65E+02 rsn:   0
  4 2r: 3.89E-11 2x: 9.23E+05 2u: 2.85E+00 ir: 3.28E-11 iu: 1.97E+00 rsn:   0
  5 2r: 9.52E-18 2x: 9.23E+05 2u: 1.70E-03 ir: 8.27E-18 iu: 1.41E-03 rsn: rtol
 Step      3 Time=  3.31667E-02 Dt=  1.10000E-02 [hour] snes_conv_reason:    3
  newton =   5 [      16] linear =     5 [        16] cuts =  0 [   0]
  --> max chng: dpmx=   2.0511E+03

== RICHARDS FLOW ===============================================================
  0 2r: 2.84E-05 2x: 0.00E+00 2u: 0.00E+00 ir: 2.36E-05 iu: 0.00E+00 rsn:   0
  1 2r: 2.15E-06 2x: 9.23E+05 2u: 8.16E+02 ir: 2.12E-06 iu: 6.22E+02 rsn:   0
  2 2r: 1.07E-08 2x: 9.23E+05 2u: 3.14E+01 ir: 9.47E-09 iu: 2.89E+01 rsn:   0
  3 2r: 2.65E-13 2x: 9.23E+05 2u: 1.85E-01 ir: 2.39E-13 iu: 1.35E-01 rsn: rtol
 Step      4 Time=  3.67967E-02 Dt=  3.63000E-03 [hour] snes_conv_reason:    3
  newton =   3 [      19] linear =     3 [        19] cuts =  0 [   0]
  --> max chng: dpmx=   6.1091E+02

== RICHARDS FLOW ===============================================================
  0 2r: 2.57E-05 2x: 0.00E+00 2u: 0.00E+00 ir: 2.10E-05 iu: 0.00E+00 rsn:   0
  1 2r: 3.55E-06 2x: 9.23E+05 2u: 1.66E+03 ir: 2.89E-06 iu: 1.49E+03 rsn:   0
  2 2r: 3.98E-08 2x: 9.23E+05 2u: 1.60E+02 ir: 3.57E-08 iu: 1.43E+02 rsn:   0
  3 2r: 1.11E-11 2x: 9.23E+05 2u: 2.52E+00 ir: 1.08E-11 iu: 2.19E+00 rsn:   0
  4 2r: 7.79E-19 2x: 9.23E+05 2u: 6.10E-04 ir: 7.05E-19 iu: 5.75E-04 rsn: rtol
 Step      5 Time=  4.40567E-02 Dt=  7.26000E-03 [hour] snes_conv_reason:    3
  newton =   4 [      23] linear =     4 [        23] cuts =  0 [   0]
  --> max chng: dpmx=   1.3418E+03

== RICHARDS FLOW ===============================================================
  0 2r: 2.24E-05 2x: 0.00E+00 2u: 0.00E+00 ir: 1.57E-05 iu: 0.00E+00 rsn:   0
  1 2r: 1.25E-05 2x: 9.23E+05 2u: 2.77E+03 ir: 1.14E-05 iu: 2.37E+03 rsn:   0
  2 2r: 1.47E-06 2x: 9.23E+05 2u: 4.68E+02 ir: 1.21E-06 iu: 4.49E+02 rsn:   0
  3 2r: 1.72E-08 2x: 9.23E+05 2u: 9.92E+01 ir: 1.52E-08 iu: 8.46E+01 rsn:   0
  4 2r: 2.97E-12 2x: 9.23E+05 2u: 9.93E-01 ir: 2.54E-12 iu: 7.07E-01 rsn:   0
  5 2r: 1.26E-18 2x: 9.23E+05 2u: 1.84E-04 ir: 1.22E-18 iu: 1.44E-04 rsn: rtol
 Step      6 Time=  5.85767E-02 Dt=  1.45200E-02 [hour] snes_conv_reason:    3
  newton =   5 [      28] linear =     5 [        28] cuts =  0 [   0]
  --> max chng: dpmx=   1.8738E+03

== RICHARDS FLOW ===============================================================
  0 2r: 1.83E-05 2x: 0.00E+00 2u: 0.00E+00 ir: 1.49E-05 iu: 0.00E+00 rsn:   0
  1 2r: 1.21E-06 2x: 9.24E+05 2u: 7.44E+02 ir: 1.20E-06 iu: 5.41E+02 rsn:   0
  2 2r: 5.38E-09 2x: 9.24E+05 2u: 2.79E+01 ir: 4.90E-09 iu: 2.60E+01 rsn:   0
  3 2r: 9.33E-14 2x: 9.24E+05 2u: 1.28E-01 ir: 8.44E-14 iu: 9.94E-02 rsn: rtol
 Step      7 Time=  6.33683E-02 Dt=  4.79160E-03 [hour] snes_conv_reason:    3
  newton =   3 [      31] linear =     3 [        31] cuts =  0 [   0]
  --> max chng: dpmx=   5.3136E+02

== RICHARDS FLOW ===============================================================
  0 2r: 1.71E-05 2x: 0.00E+00 2u: 0.00E+00 ir: 1.36E-05 iu: 0.00E+00 rsn:   0
  1 2r: 2.24E-06 2x: 9.24E+05 2u: 1.53E+03 ir: 2.06E-06 iu: 1.32E+03 rsn:   0
  2 2r: 1.94E-08 2x: 9.24E+05 2u: 1.27E+02 ir: 1.73E-08 iu: 1.07E+02 rsn:   0
  3 2r: 1.39E-12 2x: 9.24E+05 2u: 1.22E+00 ir: 1.23E-12 iu: 9.26E-01 rsn:   0
  4 2r: 6.48E-19 2x: 9.24E+05 2u: 8.73E-05 ir: 3.79E-19 iu: 7.31E-05 rsn: rtol
 Step      8 Time=  7.29515E-02 Dt=  9.58320E-03 [hour] snes_conv_reason:    3
  newton =   4 [      35] linear =     4 [        35] cuts =  0 [   0]
  --> max chng: dpmx=   1.2095E+03

== RICHARDS FLOW ===============================================================
  0 2r: 1.55E-05 2x: 0.00E+00 2u: 0.00E+00 ir: 1.08E-05 iu: 0.00E+00 rsn:   0
  1 2r: 2.34E-06 2x: 9.24E+05 2u: 1.48E+03 ir: 2.03E-06 iu: 1.30E+03 rsn:   0
  2 2r: 5.44E-08 2x: 9.24E+05 2u: 1.52E+02 ir: 5.00E-08 iu: 1.41E+02 rsn:   0
  3 2r: 2.27E-11 2x: 9.24E+05 2u: 3.75E+00 ir: 2.12E-11 iu: 2.99E+00 rsn:   0
  4 2r: 4.90E-18 2x: 9.24E+05 2u: 1.55E-03 ir: 3.82E-18 iu: 1.29E-03 rsn: rtol
 Step      9 Time=  8.33333E-02 Dt=  1.03819E-02 [hour] snes_conv_reason:    3
  newton =   4 [      39] linear =     4 [        39] cuts =  0 [   0]
  --> max chng: dpmx=   1.1542E+03

== RICHARDS FLOW ===============================================================
  0 2r: 1.43E-05 2x: 0.00E+00 2u: 0.00E+00 ir: 1.08E-05 iu: 0.00E+00 rsn:   0
  1 2r: 5.98E-06 2x: 9.25E+05 2u: 2.50E+03 ir: 5.63E-06 iu: 1.74E+03 rsn:   0
  2 2r: 4.81E-07 2x: 9.24E+05 2u: 3.00E+02 ir: 3.97E-07 iu: 2.85E+02 rsn:   0
  3 2r: 2.41E-09 2x: 9.24E+05 2u: 3.26E+01 ir: 2.05E-09 iu: 2.62E+01 rsn:   0
  4 2r: 7.24E-14 2x: 9.24E+05 2u: 1.62E-01 ir: 6.07E-14 iu: 1.11E-01 rsn: rtol
 Step     10 Time=  1.02500E-01 Dt=  1.91664E-02 [hour] snes_conv_reason:    3
  newton =   4 [      43] linear =     4 [        43] cuts =  0 [   0]
  --> max chng: dpmx=   1.6490E+03

== RICHARDS FLOW ===============================================================
  0 2r: 1.24E-05 2x: 0.00E+00 2u: 0.00E+00 ir: 9.34E-06 iu: 0.00E+00 rsn:   0
  1 2r: 1.38E-05 2x: 9.25E+05 2u: 4.58E+03 ir: 1.07E-05 iu: 3.92E+03 rsn:   0
  2 2r: 3.54E-06 2x: 9.25E+05 2u: 8.75E+02 ir: 2.77E-06 iu: 8.13E+02 rsn:   0
  3 2r: 2.23E-07 2x: 9.25E+05 2u: 4.73E+02 ir: 1.91E-07 iu: 4.05E+02 rsn:   0
  4 2r: 1.22E-09 2x: 9.25E+05 2u: 2.94E+01 ir: 1.01E-09 iu: 1.97E+01 rsn:   0
  5 2r: 3.24E-14 2x: 9.25E+05 2u: 1.57E-01 ir: 2.74E-14 iu: 1.17E-01 rsn: rtol
 Step     11 Time=  1.40833E-01 Dt=  3.83328E-02 [hour] snes_conv_reason:    3
  newton =   5 [      48] linear =     5 [        48] cuts =  0 [   0]
  --> max chng: dpmx=   2.8599E+03

== RICHARDS FLOW ===============================================================
  0 2r: 1.02E-05 2x: 0.00E+00 2u: 0.00E+00 ir: 7.08E-06 iu: 0.00E+00 rsn:   0
  1 2r: 1.01E-06 2x: 9.25E+05 2u: 1.10E+03 ir: 9.64E-07 iu: 7.49E+02 rsn:   0
  2 2r: 1.28E-08 2x: 9.25E+05 2u: 6.02E+01 ir: 1.13E-08 iu: 5.43E+01 rsn:   0
  3 2r: 1.38E-12 2x: 9.25E+05 2u: 6.54E-01 ir: 1.19E-12 iu: 5.15E-01 rsn:   0
  4 2r: 9.75E-19 2x: 9.25E+05 2u: 7.86E-05 ir: 7.05E-19 iu: 5.57E-05 rsn: rtol
 Step     12 Time=  1.53482E-01 Dt=  1.26498E-02 [hour] snes_conv_reason:    3
  newton =   4 [      52] linear =     4 [        52] cuts =  0 [   0]
  --> max chng: dpmx=   7.3071E+02

== RICHARDS FLOW ===============================================================
  0 2r: 9.57E-06 2x: 0.00E+00 2u: 0.00E+00 ir: 6.76E-06 iu: 0.00E+00 rsn:   0
  1 2r: 8.42E-07 2x: 9.26E+05 2u: 1.12E+03 ir: 7.75E-07 iu: 8.80E+02 rsn:   0
  2 2r: 5.76E-09 2x: 9.26E+05 2u: 6.79E+01 ir: 5.47E-09 iu: 5.22E+01 rsn:   0
  3 2r: 2.16E-13 2x: 9.26E+05 2u: 3.64E-01 ir: 2.02E-13 iu: 2.33E-01 rsn:   0
  4 2r: 1.45E-18 2x: 9.26E+05 2u: 9.03E-06 ir: 1.19E-18 iu: 8.38E-06 rsn: rtol
 Step     13 Time=  1.66667E-01 Dt=  1.31843E-02 [hour] snes_conv_reason:    3
  newton =   4 [      56] linear =     4 [        56] cuts =  0 [   0]
  --> max chng: dpmx=   8.2790E+02

== RICHARDS FLOW ===============================================================
  0 2r: 9.06E-06 2x: 0.00E+00 2u: 0.00E+00 ir: 6.04E-06 iu: 0.00E+00 rsn:   0
  1 2r: 2.31E-06 2x: 9.26E+05 2u: 2.12E+03 ir: 1.88E-06 iu: 1.64E+03 rsn:   0
  2 2r: 1.29E-07 2x: 9.26E+05 2u: 2.45E+02 ir: 1.09E-07 iu: 2.26E+02 rsn:   0
  3 2r: 2.93E-10 2x: 9.26E+05 2u: 1.56E+01 ir: 2.57E-10 iu: 1.14E+01 rsn:   0
  4 2r: 1.59E-15 2x: 9.26E+05 2u: 3.35E-02 ir: 1.37E-15 iu: 2.50E-02 rsn: rtol
 Step     14 Time=  1.91966E-01 Dt=  2.52996E-02 [hour] snes_conv_reason:    3
  newton =   4 [      60] linear =     4 [        60] cuts =  0 [   0]
  --> max chng: dpmx=   1.3983E+03

== RICHARDS FLOW ===============================================================
  0 2r: 8.25E-06 2x: 0.00E+00 2u: 0.00E+00 ir: 5.62E-06 iu: 0.00E+00 rsn:   0
  1 2r: 5.48E-06 2x: 9.27E+05 2u: 4.10E+03 ir: 4.90E-06 iu: 3.24E+03 rsn:   0
  2 2r: 6.59E-07 2x: 9.27E+05 2u: 7.53E+02 ir: 5.05E-07 iu: 5.77E+02 rsn:   0
  3 2r: 6.26E-09 2x: 9.27E+05 2u: 1.50E+02 ir: 4.16E-09 iu: 1.26E+02 rsn:   0
  4 2r: 1.53E-12 2x: 9.27E+05 2u: 1.58E+00 ir: 1.22E-12 iu: 1.11E+00 rsn:   0
  5 2r: 1.76E-18 2x: 9.27E+05 2u: 3.53E-04 ir: 1.10E-18 iu: 2.53E-04 rsn: rtol
 Step     15 Time=  2.42566E-01 Dt=  5.05993E-02 [hour] snes_conv_reason:    3
  newton =   5 [      65] linear =     5 [        65] cuts =  0 [   0]
  --> max chng: dpmx=   2.5989E+03

== RICHARDS FLOW ===============================================================
  0 2r: 7.11E-06 2x: 0.00E+00 2u: 0.00E+00 ir: 4.44E-06 iu: 0.00E+00 rsn:   0
  1 2r: 1.93E-07 2x: 9.27E+05 2u: 4.47E+02 ir: 1.48E-07 iu: 3.19E+02 rsn:   0
  2 2r: 2.12E-10 2x: 9.27E+05 2u: 1.04E+01 ir: 1.95E-10 iu: 9.42E+00 rsn:   0
  3 2r: 3.15E-16 2x: 9.27E+05 2u: 1.20E-02 ir: 3.00E-16 iu: 1.08E-02 rsn: rtol
 Step     16 Time=  2.50000E-01 Dt=  7.43439E-03 [hour] snes_conv_reason:    3
  newton =   3 [      68] linear =     3 [        68] cuts =  0 [   0]
  --> max chng: dpmx=   3.0990E+02

== RICHARDS FLOW ===============================================================
  0 2r: 6.97E-06 2x: 0.00E+00 2u: 0.00E+00 ir: 4.36E-06 iu: 0.00E+00 rsn:   0
  1 2r: 5.63E-07 2x: 9.27E+05 2u: 1.04E+03 ir: 4.95E-07 iu: 6.87E+02 rsn:   0
  2 2r: 5.55E-09 2x: 9.27E+05 2u: 5.22E+01 ir: 4.95E-09 iu: 4.75E+01 rsn:   0
  3 2r: 4.08E-13 2x: 9.27E+05 2u: 4.53E-01 ir: 3.58E-13 iu: 3.69E-01 rsn:   0
  4 2r: 2.19E-18 2x: 9.27E+05 2u: 3.43E-05 ir: 1.49E-18 iu: 2.63E-05 rsn: rtol
 Step     17 Time=  2.66698E-01 Dt=  1.66978E-02 [hour] snes_conv_reason:    3
  newton =   4 [      72] linear =     4 [        72] cuts =  0 [   0]
  --> max chng: dpmx=   6.3904E+02

== RICHARDS FLOW ===============================================================
  0 2r: 6.70E-06 2x: 0.00E+00 2u: 0.00E+00 ir: 4.39E-06 iu: 0.00E+00 rsn:   0
  1 2r: 1.39E-06 2x: 9.28E+05 2u: 2.13E+03 ir: 1.25E-06 iu: 1.62E+03 rsn:   0
  2 2r: 4.23E-08 2x: 9.28E+05 2u: 2.32E+02 ir: 3.83E-08 iu: 1.71E+02 rsn:   0
  3 2r: 2.30E-11 2x: 9.28E+05 2u: 6.64E+00 ir: 2.21E-11 iu: 4.69E+00 rsn:   0
  4 2r: 1.19E-17 2x: 9.28E+05 2u: 2.53E-03 ir: 9.74E-18 iu: 1.83E-03 rsn: rtol
 Step     18 Time=  3.00093E-01 Dt=  3.33955E-02 [hour] snes_conv_reason:    3
  newton =   4 [      76] linear =     4 [        76] cuts =  0 [   0]
  --> max chng: dpmx=   1.4424E+03

== RICHARDS FLOW ===============================================================
  0 2r: 6.25E-06 2x: 0.00E+00 2u: 0.00E+00 ir: 3.90E-06 iu: 0.00E+00 rsn:   0
  1 2r: 1.26E-06 2x: 9.28E+05 2u: 1.96E+03 ir: 1.00E-06 iu: 1.38E+03 rsn:   0
  2 2r: 5.36E-08 2x: 9.28E+05 2u: 1.85E+02 ir: 4.46E-08 iu: 1.67E+02 rsn:   0
  3 2r: 6.99E-11 2x: 9.28E+05 2u: 7.75E+00 ir: 6.03E-11 iu: 5.50E+00 rsn:   0
  4 2r: 1.16E-16 2x: 9.28E+05 2u: 9.75E-03 ir: 9.82E-17 iu: 7.24E-03 rsn: rtol
 Step     19 Time=  3.33333E-01 Dt=  3.32400E-02 [hour] snes_conv_reason:    3
  newton =   4 [      80] linear =     4 [        80] cuts =  0 [   0]
  --> max chng: dpmx=   1.2080E+03

== RICHARDS FLOW ===============================================================
  0 2r: 5.88E-06 2x: 0.00E+00 2u: 0.00E+00 ir: 3.72E-06 iu: 0.00E+00 rsn:   0
  1 2r: 3.57E-06 2x: 9.29E+05 2u: 3.95E+03 ir: 2.84E-06 iu: 2.97E+03 rsn:   0
  2 2r: 4.52E-07 2x: 9.29E+05 2u: 6.69E+02 ir: 2.87E-07 iu: 5.22E+02 rsn:   0
  3 2r: 6.14E-09 2x: 9.29E+05 2u: 1.25E+02 ir: 5.09E-09 iu: 9.87E+01 rsn:   0
  4 2r: 2.17E-12 2x: 9.29E+05 2u: 1.72E+00 ir: 1.79E-12 iu: 1.24E+00 rsn:   0
  5 2r: 2.91E-18 2x: 9.29E+05 2u: 5.05E-04 ir: 1.86E-18 iu: 3.56E-04 rsn: rtol
 Step     20 Time=  4.00124E-01 Dt=  6.67911E-02 [hour] snes_conv_reason:    3
  newton =   5 [      85] linear =     5 [        85] cuts =  0 [   0]
  --> max chng: dpmx=   2.3864E+03

== RICHARDS FLOW ===============================================================
  0 2r: 5.31E-06 2x: 0.00E+00 2u: 0.00E+00 ir: 3.12E-06 iu: 0.00E+00 rsn:   0
  1 2r: 2.60E-07 2x: 9.29E+05 2u: 7.69E+02 ir: 2.03E-07 iu: 5.00E+02 rsn:   0
  2 2r: 1.03E-09 2x: 9.29E+05 2u: 2.74E+01 ir: 9.17E-10 iu: 2.40E+01 rsn:   0
  3 2r: 1.66E-14 2x: 9.29E+05 2u: 9.91E-02 ir: 1.49E-14 iu: 8.48E-02 rsn: rtol
 Step     21 Time=  4.16667E-01 Dt=  1.65423E-02 [hour] snes_conv_reason:    3
  newton =   3 [      88] linear =     3 [        88] cuts =  0 [   0]
  --> max chng: dpmx=   4.7596E+02

== RICHARDS FLOW ===============================================================
  0 2r: 5.20E-06 2x: 0.00E+00 2u: 0.00E+00 ir: 3.13E-06 iu: 0.00E+00 rsn:   0
  1 2r: 3.68E-07 2x: 9.29E+05 2u: 1.04E+03 ir: 3.20E-07 iu: 6.96E+02 rsn:   0
  2 2r: 2.78E-09 2x: 9.29E+05 2u: 4.98E+01 ir: 2.62E-09 iu: 3.78E+01 rsn:   0
  3 2r: 1.47E-13 2x: 9.29E+05 2u: 2.44E-01 ir: 1.23E-13 iu: 2.29E-01 rsn:   0
  4 2r: 5.03E-18 2x: 9.29E+05 2u: 1.37E-05 ir: 3.69E-18 iu: 9.95E-06 rsn: rtol
 Step     22 Time=  4.38708E-01 Dt=  2.20411E-02 [hour] snes_conv_reason:    3
  newton =   4 [      92] linear =     4 [        92] cuts =  0 [   0]
  --> max chng: dpmx=   6.6887E+02

== RICHARDS FLOW ===============================================================
  0 2r: 5.07E-06 2x: 0.00E+00 2u: 0.00E+00 ir: 3.10E-06 iu: 0.00E+00 rsn:   0
  1 2r: 1.03E-06 2x: 9.30E+05 2u: 2.15E+03 ir: 7.54E-07 iu: 1.54E+03 rsn:   0
  2 2r: 3.79E-08 2x: 9.30E+05 2u: 2.19E+02 ir: 2.51E-08 iu: 1.80E+02 rsn:   0
  3 2r: 4.64E-11 2x: 9.30E+05 2u: 8.83E+00 ir: 4.08E-11 iu: 6.18E+00 rsn:   0
  4 2r: 8.09E-17 2x: 9.30E+05 2u: 9.84E-03 ir: 6.88E-17 iu: 7.85E-03 rsn: rtol
 Step     23 Time=  4.82790E-01 Dt=  4.40821E-02 [hour] snes_conv_reason:    3
  newton =   4 [      96] linear =     4 [        96] cuts =  0 [   0]
  --> max chng: dpmx=   1.3561E+03

== RICHARDS FLOW ===============================================================
  0 2r: 4.84E-06 2x: 0.00E+00 2u: 0.00E+00 ir: 2.77E-06 iu: 0.00E+00 rsn:   0
  1 2r: 2.20E-07 2x: 9.30E+05 2u: 7.53E+02 ir: 1.76E-07 iu: 4.85E+02 rsn:   0
  2 2r: 7.89E-10 2x: 9.30E+05 2u: 2.59E+01 ir: 7.11E-10 iu: 2.24E+01 rsn:   0
  3 2r: 1.04E-14 2x: 9.30E+05 2u: 8.14E-02 ir: 9.35E-15 iu: 7.17E-02 rsn: rtol
 Step     24 Time=  5.00000E-01 Dt=  1.72102E-02 [hour] snes_conv_reason:    3
  newton =   3 [      99] linear =     3 [        99] cuts =  0 [   0]
  --> max chng: dpmx=   4.6244E+02

== RICHARDS FLOW ===============================================================
  0 2r: 4.77E-06 2x: 0.00E+00 2u: 0.00E+00 ir: 2.83E-06 iu: 0.00E+00 rsn:   0
  1 2r: 2.95E-06 2x: 9.31E+05 2u: 4.06E+03 ir: 2.27E-06 iu: 2.94E+03 rsn:   0
  2 2r: 3.99E-07 2x: 9.31E+05 2u: 6.72E+02 ir: 2.59E-07 iu: 5.15E+02 rsn:   0
  3 2r: 5.73E-09 2x: 9.31E+05 2u: 1.23E+02 ir: 4.61E-09 iu: 9.48E+01 rsn:   0
  4 2r: 2.24E-12 2x: 9.31E+05 2u: 1.87E+00 ir: 1.82E-12 iu: 1.30E+00 rsn:   0
  5 2r: 1.42E-18 2x: 9.31E+05 2u: 5.81E-04 ir: 1.08E-18 iu: 4.13E-04 rsn: rtol
 Step     25 Time=  5.83333E-01 Dt=  8.33333E-02 [hour] snes_conv_reason:    3
  newton =   5 [     104] linear =     5 [       104] cuts =  0 [   0]
  --> max chng: dpmx=   2.3646E+03

== RICHARDS FLOW ===============================================================
  0 2r: 4.38E-06 2x: 0.00E+00 2u: 0.00E+00 ir: 2.48E-06 iu: 0.00E+00 rsn:   0
  1 2r: 2.11E-06 2x: 9.32E+05 2u: 3.57E+03 ir: 1.86E-06 iu: 2.39E+03 rsn:   0
  2 2r: 2.33E-07 2x: 9.32E+05 2u: 5.29E+02 ir: 2.13E-07 iu: 3.40E+02 rsn:   0
  3 2r: 2.28E-09 2x: 9.32E+05 2u: 5.22E+01 ir: 1.90E-09 iu: 3.95E+01 rsn:   0
  4 2r: 1.86E-13 2x: 9.32E+05 2u: 2.87E-01 ir: 1.46E-13 iu: 2.20E-01 rsn:   0
  5 2r: 2.65E-18 2x: 9.32E+05 2u: 2.66E-05 ir: 1.86E-18 iu: 1.62E-05 rsn: rtol
 Step     26 Time=  6.66667E-01 Dt=  8.33333E-02 [hour] snes_conv_reason:    3
  newton =   5 [     109] linear =     5 [       109] cuts =  0 [   0]
  --> max chng: dpmx=   2.0527E+03

== RICHARDS FLOW ===============================================================
  0 2r: 4.07E-06 2x: 0.00E+00 2u: 0.00E+00 ir: 2.31E-06 iu: 0.00E+00 rsn:   0
  1 2r: 1.63E-06 2x: 9.32E+05 2u: 3.28E+03 ir: 1.30E-06 iu: 2.05E+03 rsn:   0
  2 2r: 1.67E-07 2x: 9.32E+05 2u: 4.40E+02 ir: 1.43E-07 iu: 3.08E+02 rsn:   0
  3 2r: 1.44E-09 2x: 9.32E+05 2u: 3.18E+01 ir: 1.14E-09 iu: 2.28E+01 rsn:   0
  4 2r: 7.29E-14 2x: 9.32E+05 2u: 2.21E-01 ir: 5.95E-14 iu: 1.50E-01 rsn:   0
  5 2r: 1.35E-18 2x: 9.32E+05 2u: 1.34E-05 ir: 7.39E-19 iu: 8.38E-06 rsn: rtol
 Step     27 Time=  7.50000E-01 Dt=  8.33333E-02 [hour] snes_conv_reason:    3
  newton =   5 [     114] linear =     5 [       114] cuts =  0 [   0]
  --> max chng: dpmx=   1.8483E+03

== RICHARDS FLOW ===============================================================
  0 2r: 3.84E-06 2x: 0.00E+00 2u: 0.00E+00 ir: 2.14E-06 iu: 0.00E+00 rsn:   0
  1 2r: 1.36E-06 2x: 9.33E+05 2u: 3.09E+03 ir: 8.80E-07 iu: 1.90E+03 rsn:   0
  2 2r: 1.20E-07 2x: 9.33E+05 2u: 3.86E+02 ir: 8.83E-08 iu: 2.85E+02 rsn:   0
  3 2r: 7.56E-10 2x: 9.33E+05 2u: 2.63E+01 ir: 6.11E-10 iu: 1.83E+01 rsn:   0
  4 2r: 2.54E-14 2x: 9.33E+05 2u: 1.54E-01 ir: 2.07E-14 iu: 1.05E-01 rsn: rtol
 Step     28 Time=  8.33333E-01 Dt=  8.33333E-02 [hour] snes_conv_reason:    3
  newton =   4 [     118] linear =     4 [       118] cuts =  0 [   0]
  --> max chng: dpmx=   1.6618E+03

== RICHARDS FLOW ===============================================================
  0 2r: 3.67E-06 2x: 0.00E+00 2u: 0.00E+00 ir: 1.98E-06 iu: 0.00E+00 rsn:   0
  1 2r: 1.12E-06 2x: 9.34E+05 2u: 2.94E+03 ir: 8.20E-07 iu: 1.88E+03 rsn:   0
  2 2r: 7.85E-08 2x: 9.34E+05 2u: 3.46E+02 ir: 5.04E-08 iu: 2.55E+02 rsn:   0
  3 2r: 2.60E-10 2x: 9.34E+05 2u: 2.21E+01 ir: 2.06E-10 iu: 1.50E+01 rsn:   0
  4 2r: 4.24E-15 2x: 9.34E+05 2u: 7.63E-02 ir: 3.45E-15 iu: 5.21E-02 rsn: rtol
 Step     29 Time=  9.16667E-01 Dt=  8.33333E-02 [hour] snes_conv_reason:    3
  newton =   4 [     122] linear =     4 [       122] cuts =  0 [   0]
  --> max chng: dpmx=   1.6085E+03

== RICHARDS FLOW ===============================================================
  0 2r: 3.52E-06 2x: 0.00E+00 2u: 0.00E+00 ir: 1.86E-06 iu: 0.00E+00 rsn:   0
  1 2r: 9.69E-07 2x: 9.35E+05 2u: 2.83E+03 ir: 7.73E-07 iu: 1.81E+03 rsn:   0
  2 2r: 5.60E-08 2x: 9.34E+05 2u: 3.20E+02 ir: 4.91E-08 iu: 2.10E+02 rsn:   0
  3 2r: 1.26E-10 2x: 9.34E+05 2u: 1.63E+01 ir: 1.16E-10 iu: 1.18E+01 rsn:   0
  4 2r: 6.77E-16 2x: 9.34E+05 2u: 2.38E-02 ir: 5.49E-16 iu: 1.67E-02 rsn: rtol
 Step     30 Time=  1.00000E+00 Dt=  8.33333E-02 [hour] snes_conv_reason:    3
  newton =   4 [     126] linear =     4 [       126] cuts =  0 [   0]
  --> max chng: dpmx=   1.5951E+03

== RICHARDS FLOW ===============================================================
  0 2r: 3.40E-06 2x: 0.00E+00 2u: 0.00E+00 ir: 1.82E-06 iu: 0.00E+00 rsn:   0
  1 2r: 8.86E-07 2x: 9.35E+05 2u: 2.74E+03 ir: 6.63E-07 iu: 1.67E+03 rsn:   0
  2 2r: 5.33E-08 2x: 9.35E+05 2u: 2.98E+02 ir: 4.58E-08 iu: 2.06E+02 rsn:   0
  3 2r: 1.75E-10 2x: 9.35E+05 2u: 1.21E+01 ir: 1.40E-10 iu: 8.96E+00 rsn:   0
  4 2r: 1.17E-15 2x: 9.35E+05 2u: 2.95E-02 ir: 9.59E-16 iu: 2.11E-02 rsn: rtol
 Step     31 Time=  1.08333E+00 Dt=  8.33333E-02 [hour] snes_conv_reason:    3
  newton =   4 [     130] linear =     4 [       130] cuts =  0 [   0]
  --> max chng: dpmx=   1.5297E+03

== RICHARDS FLOW ===============================================================
  0 2r: 3.30E-06 2x: 0.00E+00 2u: 0.00E+00 ir: 1.76E-06 iu: 0.00E+00 rsn:   0
  1 2r: 8.04E-07 2x: 9.36E+05 2u: 2.66E+03 ir: 5.39E-07 iu: 1.61E+03 rsn:   0
  2 2r: 4.65E-08 2x: 9.36E+05 2u: 2.78E+02 ir: 3.13E-08 iu: 2.05E+02 rsn:   0
  3 2r: 1.20E-10 2x: 9.36E+05 2u: 1.21E+01 ir: 9.72E-11 iu: 8.35E+00 rsn:   0
  4 2r: 7.49E-16 2x: 9.36E+05 2u: 2.93E-02 ir: 6.14E-16 iu: 2.06E-02 rsn: rtol
 Step     32 Time=  1.16667E+00 Dt=  8.33333E-02 [hour] snes_conv_reason:    3
  newton =   4 [     134] linear =     4 [       134] cuts =  0 [   0]
  --> max chng: dpmx=   1.3986E+03

== RICHARDS FLOW ===============================================================
  0 2r: 3.21E-06 2x: 0.00E+00 2u: 0.00E+00 ir: 1.66E-06 iu: 0.00E+00 rsn:   0
  1 2r: 7.34E-07 2x: 9.37E+05 2u: 2.59E+03 ir: 5.61E-07 iu: 1.63E+03 rsn:   0
  2 2r: 3.37E-08 2x: 9.37E+05 2u: 2.64E+02 ir: 2.60E-08 iu: 1.83E+02 rsn:   0
  3 2r: 3.82E-11 2x: 9.37E+05 2u: 1.08E+01 ir: 3.04E-11 iu: 7.56E+00 rsn:   0
  4 2r: 5.49E-17 2x: 9.37E+05 2u: 1.28E-02 ir: 3.44E-17 iu: 7.26E-03 rsn: rtol
 Step     33 Time=  1.25000E+00 Dt=  8.33333E-02 [hour] snes_conv_reason:    3
  newton =   4 [     138] linear =     4 [       138] cuts =  0 [   0]
  --> max chng: dpmx=   1.4398E+03

== RICHARDS FLOW ===============================================================
  0 2r: 3.14E-06 2x: 0.00E+00 2u: 0.00E+00 ir: 1.64E-06 iu: 0.00E+00 rsn:   0
  1 2r: 6.88E-07 2x: 9.37E+05 2u: 2.53E+03 ir: 5.17E-07 iu: 1.55E+03 rsn:   0
  2 2r: 3.20E-08 2x: 9.37E+05 2u: 2.52E+02 ir: 2.84E-08 iu: 1.70E+02 rsn:   0
  3 2r: 6.64E-11 2x: 9.37E+05 2u: 8.11E+00 ir: 5.38E-11 iu: 5.86E+00 rsn:   0
  4 2r: 1.74E-16 2x: 9.37E+05 2u: 1.10E-02 ir: 1.41E-16 iu: 8.33E-03 rsn: rtol
 Step     34 Time=  1.33333E+00 Dt=  8.33333E-02 [hour] snes_conv_reason:    3
  newton =   4 [     142] linear =     4 [       142] cuts =  0 [   0]
  --> max chng: dpmx=   1.4157E+03

== RICHARDS FLOW ===============================================================
  0 2r: 3.07E-06 2x: 0.00E+00 2u: 0.00E+00 ir: 1.61E-06 iu: 0.00E+00 rsn:   0
  1 2r: 6.43E-07 2x: 9.38E+05 2u: 2.48E+03 ir: 4.28E-07 iu: 1.48E+03 rsn:   0
  2 2r: 3.07E-08 2x: 9.38E+05 2u: 2.40E+02 ir: 2.12E-08 iu: 1.75E+02 rsn:   0
  3 2r: 5.57E-11 2x: 9.38E+05 2u: 8.25E+00 ir: 4.50E-11 iu: 5.88E+00 rsn:   0
  4 2r: 1.62E-16 2x: 9.38E+05 2u: 1.38E-02 ir: 1.33E-16 iu: 9.78E-03 rsn: rtol
 Step     35 Time=  1.41667E+00 Dt=  8.33333E-02 [hour] snes_conv_reason:    3
  newton =   4 [     146] linear =     4 [       146] cuts =  0 [   0]
  --> max chng: dpmx=   1.2998E+03

== RICHARDS FLOW ===============================================================
  0 2r: 3.02E-06 2x: 0.00E+00 2u: 0.00E+00 ir: 1.54E-06 iu: 0.00E+00 rsn:   0
  1 2r: 6.07E-07 2x: 9.38E+05 2u: 2.43E+03 ir: 4.57E-07 iu: 1.51E+03 rsn:   0
  2 2r: 2.34E-08 2x: 9.38E+05 2u: 2.30E+02 ir: 1.84E-08 iu: 1.59E+02 rsn:   0
  3 2r: 1.95E-11 2x: 9.38E+05 2u: 7.76E+00 ir: 1.65E-11 iu: 5.33E+00 rsn:   0
  4 2r: 1.31E-17 2x: 9.38E+05 2u: 6.34E-03 ir: 9.67E-18 iu: 3.44E-03 rsn: rtol
 Step     36 Time=  1.50000E+00 Dt=  8.33333E-02 [hour] snes_conv_reason:    3
  newton =   4 [     150] linear =     4 [       150] cuts =  0 [   0]
  --> max chng: dpmx=   1.3500E+03

== RICHARDS FLOW ===============================================================
  0 2r: 2.96E-06 2x: 0.00E+00 2u: 0.00E+00 ir: 1.53E-06 iu: 0.00E+00 rsn:   0
  1 2r: 5.74E-07 2x: 9.39E+05 2u: 2.39E+03 ir: 4.22E-07 iu: 1.44E+03 rsn:   0
  2 2r: 2.34E-08 2x: 9.39E+05 2u: 2.24E+02 ir: 2.03E-08 iu: 1.53E+02 rsn:   0
  3 2r: 3.78E-11 2x: 9.39E+05 2u: 6.08E+00 ir: 3.04E-11 iu: 4.58E+00 rsn:   0
  4 2r: 5.88E-17 2x: 9.39E+05 2u: 6.83E-03 ir: 4.80E-17 iu: 5.09E-03 rsn: rtol
 Step     37 Time=  1.58333E+00 Dt=  8.33333E-02 [hour] snes_conv_reason:    3
  newton =   4 [     154] linear =     4 [       154] cuts =  0 [   0]
  --> max chng: dpmx=   1.3276E+03

== RICHARDS FLOW ===============================================================
  0 2r: 2.92E-06 2x: 0.00E+00 2u: 0.00E+00 ir: 1.51E-06 iu: 0.00E+00 rsn:   0
  1 2r: 5.49E-07 2x: 9.40E+05 2u: 2.35E+03 ir: 3.78E-07 iu: 1.41E+03 rsn:   0
  2 2r: 2.21E-08 2x: 9.40E+05 2u: 2.14E+02 ir: 1.38E-08 iu: 1.57E+02 rsn:   0
  3 2r: 2.75E-11 2x: 9.40E+05 2u: 6.50E+00 ir: 2.21E-11 iu: 4.45E+00 rsn:   0
  4 2r: 4.44E-17 2x: 9.40E+05 2u: 7.70E-03 ir: 3.66E-17 iu: 5.50E-03 rsn: rtol
 Step     38 Time=  1.66667E+00 Dt=  8.33333E-02 [hour] snes_conv_reason:    3
  newton =   4 [     158] linear =     4 [       158] cuts =  0 [   0]
  --> max chng: dpmx=   1.2496E+03

== RICHARDS FLOW ===============================================================
  0 2r: 2.88E-06 2x: 0.00E+00 2u: 0.00E+00 ir: 1.45E-06 iu: 0.00E+00 rsn:   0
  1 2r: 5.58E-07 2x: 9.40E+05 2u: 2.32E+03 ir: 3.96E-07 iu: 1.43E+03 rsn:   0
  2 2r: 3.20E-08 2x: 9.40E+05 2u: 2.09E+02 ir: 1.89E-08 iu: 1.36E+02 rsn:   0
  3 2r: 3.37E-10 2x: 9.40E+05 2u: 5.81E+00 ir: 2.39E-10 iu: 4.00E+00 rsn:   0
  4 2r: 5.11E-14 2x: 9.40E+05 2u: 3.70E-03 ir: 3.61E-14 iu: 1.90E-03 rsn: stol
 Step     39 Time=  1.75000E+00 Dt=  8.33333E-02 [hour] snes_conv_reason:    4
  newton =   4 [     162] linear =     4 [       162] cuts =  0 [   0]
  --> max chng: dpmx=   1.2941E+03

== RICHARDS FLOW ===============================================================
  0 2r: 2.84E-06 2x: 0.00E+00 2u: 0.00E+00 ir: 1.46E-06 iu: 0.00E+00 rsn:   0
  1 2r: 6.61E-07 2x: 9.41E+05 2u: 2.30E+03 ir: 3.47E-07 iu: 1.33E+03 rsn:   0
  2 2r: 1.93E-08 2x: 9.41E+05 2u: 2.05E+02 ir: 1.54E-08 iu: 1.44E+02 rsn:   0
  3 2r: 2.56E-11 2x: 9.41E+05 2u: 5.04E+00 ir: 2.05E-11 iu: 3.92E+00 rsn:   0
  4 2r: 2.96E-17 2x: 9.41E+05 2u: 5.43E-03 ir: 2.44E-17 iu: 3.91E-03 rsn: rtol
 Step     40 Time=  1.83333E+00 Dt=  8.33333E-02 [hour] snes_conv_reason:    3
  newton =   4 [     166] linear =     4 [       166] cuts =  0 [   0]
  --> max chng: dpmx=   1.2477E+03

== RICHARDS FLOW ===============================================================
  0 2r: 2.81E-06 2x: 0.00E+00 2u: 0.00E+00 ir: 1.43E-06 iu: 0.00E+00 rsn:   0
  1 2r: 4.90E-07 2x: 9.42E+05 2u: 2.27E+03 ir: 3.52E-07 iu: 1.38E+03 rsn:   0
  2 2r: 1.65E-08 2x: 9.42E+05 2u: 1.97E+02 ir: 1.05E-08 iu: 1.41E+02 rsn:   0
  3 2r: 1.22E-11 2x: 9.42E+05 2u: 5.47E+00 ir: 8.79E-12 iu: 3.43E+00 rsn:   0
  4 2r: 1.01E-17 2x: 9.42E+05 2u: 4.23E-03 ir: 8.09E-18 iu: 2.92E-03 rsn: rtol
 Step     41 Time=  1.91667E+00 Dt=  8.33333E-02 [hour] snes_conv_reason:    3
  newton =   4 [     170] linear =     4 [       170] cuts =  0 [   0]
  --> max chng: dpmx=   1.2307E+03

== RICHARDS FLOW ===============================================================
  0 2r: 2.78E-06 2x: 0.00E+00 2u: 0.00E+00 ir: 1.40E-06 iu: 0.00E+00 rsn:   0
  1 2r: 4.67E-07 2x: 9.42E+05 2u: 2.24E+03 ir: 3.49E-07 iu: 1.36E+03 rsn:   0
  2 2r: 1.51E-08 2x: 9.42E+05 2u: 1.94E+02 ir: 1.35E-08 iu: 1.28E+02 rsn:   0
  3 2r: 1.53E-11 2x: 9.42E+05 2u: 4.49E+00 ir: 1.28E-11 iu: 3.11E+00 rsn:   0
  4 2r: 1.05E-17 2x: 9.42E+05 2u: 2.63E-03 ir: 8.31E-18 iu: 2.16E-03 rsn: rtol
 Step     42 Time=  2.00000E+00 Dt=  8.33333E-02 [hour] snes_conv_reason:    3
  newton =   4 [     174] linear =     4 [       174] cuts =  0 [   0]
  --> max chng: dpmx=   1.2469E+03

== RICHARDS FLOW ===============================================================
  0 2r: 2.75E-06 2x: 0.00E+00 2u: 0.00E+00 ir: 1.41E-06 iu: 0.00E+00 rsn:   0
  1 2r: 4.58E-07 2x: 9.43E+05 2u: 2.22E+03 ir: 3.04E-07 iu: 1.30E+03 rsn:   0
  2 2r: 1.58E-08 2x: 9.43E+05 2u: 1.89E+02 ir: 1.08E-08 iu: 1.37E+02 rsn:   0
  3 2r: 1.58E-11 2x: 9.43E+05 2u: 4.59E+00 ir: 1.27E-11 iu: 3.35E+00 rsn:   0
  4 2r: 1.38E-17 2x: 9.43E+05 2u: 4.16E-03 ir: 1.13E-17 iu: 2.99E-03 rsn: rtol
 Step     43 Time=  2.08333E+00 Dt=  8.33333E-02 [hour] snes_conv_reason:    3
  newton =   4 [     178] linear =     4 [       178] cuts =  0 [   0]
  --> max chng: dpmx=   1.1566E+03

== RICHARDS FLOW ===============================================================
  0 2r: 2.73E-06 2x: 0.00E+00 2u: 0.00E+00 ir: 1.35E-06 iu: 0.00E+00 rsn:   0
  1 2r: 5.08E-07 2x: 9.43E+05 2u: 2.20E+03 ir: 3.31E-07 iu: 1.34E+03 rsn:   0
  2 2r: 3.39E-07 2x: 9.43E+05 2u: 1.85E+02 ir: 2.40E-07 iu: 1.23E+02 rsn:   0
  3 2r: 5.55E-08 2x: 9.43E+05 2u: 5.52E+00 ir: 3.93E-08 iu: 2.83E+00 rsn:   0
  4 2r: 3.04E-09 2x: 9.43E+05 2u: 3.19E-01 ir: 2.15E-09 iu: 1.33E-01 rsn:   0
  5 2r: 7.85E-12 2x: 9.43E+05 2u: 1.93E-02 ir: 5.56E-12 iu: 8.07E-03 rsn:   0
  6 2r: 2.75E-17 2x: 9.43E+05 2u: 5.01E-05 ir: 1.95E-17 iu: 2.09E-05 rsn: rtol
 Step     44 Time=  2.16667E+00 Dt=  8.33333E-02 [hour] snes_conv_reason:    3
  newton =   6 [     184] linear =     6 [       184] cuts =  0 [   0]
  --> max chng: dpmx=   1.2174E+03

== RICHARDS FLOW ===============================================================
  0 2r: 2.71E-06 2x: 0.00E+00 2u: 0.00E+00 ir: 1.37E-06 iu: 0.00E+00 rsn:   0
  1 2r: 6.13E-07 2x: 9.44E+05 2u: 2.18E+03 ir: 3.31E-07 iu: 1.27E+03 rsn:   0
  2 2r: 1.44E-08 2x: 9.44E+05 2u: 1.84E+02 ir: 1.15E-08 iu: 1.28E+02 rsn:   0
  3 2r: 1.44E-11 2x: 9.44E+05 2u: 3.87E+00 ir: 1.15E-11 iu: 3.02E+00 rsn:   0
  4 2r: 1.02E-17 2x: 9.44E+05 2u: 3.07E-03 ir: 7.76E-18 iu: 2.25E-03 rsn: rtol
 Step     45 Time=  2.25000E+00 Dt=  8.33333E-02 [hour] snes_conv_reason:    3
  newton =   4 [     188] linear =     4 [       188] cuts =  0 [   0]
  --> max chng: dpmx=   1.1864E+03

== RICHARDS FLOW ===============================================================
  0 2r: 2.69E-06 2x: 0.00E+00 2u: 0.00E+00 ir: 1.35E-06 iu: 0.00E+00 rsn:   0
  1 2r: 4.33E-07 2x: 9.44E+05 2u: 2.17E+03 ir: 3.04E-07 iu: 1.30E+03 rsn:   0
  2 2r: 1.31E-08 2x: 9.44E+05 2u: 1.78E+02 ir: 8.11E-09 iu: 1.27E+02 rsn:   0
  3 2r: 7.82E-12 2x: 9.44E+05 2u: 4.28E+00 ir: 5.11E-12 iu: 2.63E+00 rsn:   0
  4 2r: 5.08E-18 2x: 9.44E+05 2u: 2.56E-03 ir: 2.79E-18 iu: 1.77E-03 rsn: rtol
 Step     46 Time=  2.33333E+00 Dt=  8.33333E-02 [hour] snes_conv_reason:    3
  newton =   4 [     192] linear =     4 [       192] cuts =  0 [   0]
  --> max chng: dpmx=   1.1723E+03

== RICHARDS FLOW ===============================================================
  0 2r: 2.67E-06 2x: 0.00E+00 2u: 0.00E+00 ir: 1.34E-06 iu: 0.00E+00 rsn:   0
  1 2r: 4.28E-07 2x: 9.45E+05 2u: 2.15E+03 ir: 3.03E-07 iu: 1.29E+03 rsn:   0
  2 2r: 1.19E-08 2x: 9.45E+05 2u: 1.77E+02 ir: 1.06E-08 iu: 1.17E+02 rsn:   0
  3 2r: 9.99E-12 2x: 9.45E+05 2u: 3.60E+00 ir: 8.33E-12 iu: 2.57E+00 rsn:   0
  4 2r: 5.70E-18 2x: 9.45E+05 2u: 1.79E-03 ir: 3.57E-18 iu: 1.46E-03 rsn: rtol
 Step     47 Time=  2.41667E+00 Dt=  8.33333E-02 [hour] snes_conv_reason:    3
  newton =   4 [     196] linear =     4 [       196] cuts =  0 [   0]
  --> max chng: dpmx=   1.1893E+03

== RICHARDS FLOW ===============================================================
  0 2r: 2.65E-06 2x: 0.00E+00 2u: 0.00E+00 ir: 1.34E-06 iu: 0.00E+00 rsn:   0
  1 2r: 4.10E-07 2x: 9.46E+05 2u: 2.14E+03 ir: 2.75E-07 iu: 1.25E+03 rsn:   0
  2 2r: 1.25E-08 2x: 9.46E+05 2u: 1.73E+02 ir: 8.04E-09 iu: 1.25E+02 rsn:   0
  3 2r: 9.46E-12 2x: 9.46E+05 2u: 3.80E+00 ir: 7.57E-12 iu: 2.71E+00 rsn:   0
  4 2r: 6.32E-18 2x: 9.46E+05 2u: 2.68E-03 ir: 4.34E-18 iu: 1.94E-03 rsn: rtol
 Step     48 Time=  2.50000E+00 Dt=  8.33333E-02 [hour] snes_conv_reason:    3
  newton =   4 [     200] linear =     4 [       200] cuts =  0 [   0]
  --> max chng: dpmx=   1.1201E+03

== RICHARDS FLOW ===============================================================
  0 2r: 2.63E-06 2x: 0.00E+00 2u: 0.00E+00 ir: 1.30E-06 iu: 0.00E+00 rsn:   0
  1 2r: 3.98E-07 2x: 9.46E+05 2u: 2.12E+03 ir: 2.95E-07 iu: 1.29E+03 rsn:   0
  2 2r: 1.05E-08 2x: 9.46E+05 2u: 1.71E+02 ir: 9.11E-09 iu: 1.10E+02 rsn:   0
  3 2r: 5.65E-12 2x: 9.46E+05 2u: 3.63E+00 ir: 5.27E-12 iu: 2.40E+00 rsn:   0
  4 2r: 4.85E-18 2x: 9.46E+05 2u: 1.20E-03 ir: 1.71E-18 iu: 9.50E-04 rsn: rtol
 Step     49 Time=  2.58333E+00 Dt=  8.33333E-02 [hour] snes_conv_reason:    3
  newton =   4 [     204] linear =     4 [       204] cuts =  0 [   0]
  --> max chng: dpmx=   1.1739E+03

== RICHARDS FLOW ===============================================================
  0 2r: 2.62E-06 2x: 0.00E+00 2u: 0.00E+00 ir: 1.32E-06 iu: 0.00E+00 rsn:   0
  1 2r: 3.92E-07 2x: 9.47E+05 2u: 2.11E+03 ir: 2.55E-07 iu: 1.19E+03 rsn:   0
  2 2r: 1.16E-08 2x: 9.47E+05 2u: 1.69E+02 ir: 8.94E-09 iu: 1.20E+02 rsn:   0
  3 2r: 9.65E-12 2x: 9.47E+05 2u: 3.31E+00 ir: 7.74E-12 iu: 2.58E+00 rsn:   0
  4 2r: 5.74E-18 2x: 9.47E+05 2u: 2.28E-03 ir: 3.84E-18 iu: 1.66E-03 rsn: rtol
 Step     50 Time=  2.66667E+00 Dt=  8.33333E-02 [hour] snes_conv_reason:    3
  newton =   4 [     208] linear =     4 [       208] cuts =  0 [   0]
  --> max chng: dpmx=   1.1280E+03

== RICHARDS FLOW ===============================================================
  0 2r: 2.61E-06 2x: 0.00E+00 2u: 0.00E+00 ir: 1.29E-06 iu: 0.00E+00 rsn:   0
  1 2r: 4.14E-07 2x: 9.47E+05 2u: 2.10E+03 ir: 2.81E-07 iu: 1.26E+03 rsn:   0
  2 2r: 2.25E-07 2x: 9.47E+05 2u: 1.67E+02 ir: 1.59E-07 iu: 1.16E+02 rsn:   0
  3 2r: 7.63E-08 2x: 9.47E+05 2u: 4.09E+00 ir: 5.40E-08 iu: 2.23E+00 rsn:   0
  4 2r: 2.33E-08 2x: 9.47E+05 2u: 1.82E-01 ir: 1.65E-08 iu: 7.59E-02 rsn:   0
  5 2r: 1.43E-09 2x: 9.47E+05 2u: 9.94E-02 ir: 1.01E-09 iu: 4.18E-02 rsn:   0
  6 2r: 4.84E-12 2x: 9.47E+05 2u: 6.90E-03 ir: 3.42E-12 iu: 2.90E-03 rsn: stol
 Step     51 Time=  2.75000E+00 Dt=  8.33333E-02 [hour] snes_conv_reason:    4
  newton =   6 [     214] linear =     6 [       214] cuts =  0 [   0]
  --> max chng: dpmx=   1.1466E+03

== RICHARDS FLOW ===============================================================
  0 2r: 2.59E-06 2x: 0.00E+00 2u: 0.00E+00 ir: 1.30E-06 iu: 0.00E+00 rsn:   0
  1 2r: 5.97E-07 2x: 9.48E+05 2u: 2.09E+03 ir: 3.52E-07 iu: 1.23E+03 rsn:   0
  2 2r: 1.17E-08 2x: 9.48E+05 2u: 1.67E+02 ir: 8.94E-09 iu: 1.14E+02 rsn:   0
  3 2r: 9.16E-12 2x: 9.48E+05 2u: 3.06E+00 ir: 6.73E-12 iu: 2.35E+00 rsn:   0
  4 2r: 5.28E-18 2x: 9.48E+05 2u: 1.68E-03 ir: 2.56E-18 iu: 1.28E-03 rsn: rtol
 Step     52 Time=  2.83333E+00 Dt=  8.33333E-02 [hour] snes_conv_reason:    3
  newton =   4 [     218] linear =     4 [       218] cuts =  0 [   0]
  --> max chng: dpmx=   1.1424E+03

== RICHARDS FLOW ===============================================================
  0 2r: 2.58E-06 2x: 0.00E+00 2u: 0.00E+00 ir: 1.29E-06 iu: 0.00E+00 rsn:   0
  1 2r: 4.20E-07 2x: 9.49E+05 2u: 2.08E+03 ir: 2.63E-07 iu: 1.23E+03 rsn:   0
  2 2r: 8.14E-08 2x: 9.48E+05 2u: 1.63E+02 ir: 5.71E-08 iu: 1.17E+02 rsn:   0
  3 2r: 6.09E-09 2x: 9.48E+05 2u: 3.43E+00 ir: 4.30E-09 iu: 2.20E+00 rsn:   0
  4 2r: 2.83E-11 2x: 9.48E+05 2u: 4.42E-02 ir: 2.00E-11 iu: 1.83E-02 rsn:   0
  5 2r: 6.23E-16 2x: 9.48E+05 2u: 2.08E-04 ir: 4.41E-16 iu: 8.60E-05 rsn: rtol
 Step     53 Time=  2.91667E+00 Dt=  8.33333E-02 [hour] snes_conv_reason:    3
  newton =   5 [     223] linear =     5 [       223] cuts =  0 [   0]
  --> max chng: dpmx=   1.1121E+03

== RICHARDS FLOW ===============================================================
  0 2r: 2.57E-06 2x: 0.00E+00 2u: 0.00E+00 ir: 1.27E-06 iu: 0.00E+00 rsn:   0
  1 2r: 4.48E-07 2x: 9.49E+05 2u: 2.07E+03 ir: 2.69E-07 iu: 1.24E+03 rsn:   0
  2 2r: 9.46E-09 2x: 9.49E+05 2u: 1.63E+02 ir: 8.36E-09 iu: 1.07E+02 rsn:   0
  3 2r: 6.05E-12 2x: 9.49E+05 2u: 3.02E+00 ir: 5.16E-12 iu: 2.08E+00 rsn:   0
  4 2r: 4.03E-18 2x: 9.49E+05 2u: 1.09E-03 ir: 1.61E-18 iu: 9.29E-04 rsn: rtol
 Step     54 Time=  3.00000E+00 Dt=  8.33333E-02 [hour] snes_conv_reason:    3
  newton =   4 [     227] linear =     4 [       227] cuts =  0 [   0]
  --> max chng: dpmx=   1.1423E+03

== RICHARDS FLOW ===============================================================
  0 2r: 2.56E-06 2x: 0.00E+00 2u: 0.00E+00 ir: 1.28E-06 iu: 0.00E+00 rsn:   0
  1 2r: 3.79E-07 2x: 9.50E+05 2u: 2.06E+03 ir: 2.45E-07 iu: 1.19E+03 rsn:   0
  2 2r: 1.40E-08 2x: 9.50E+05 2u: 1.60E+02 ir: 6.86E-09 iu: 1.15E+02 rsn:   0
  3 2r: 4.49E-11 2x: 9.50E+05 2u: 3.11E+00 ir: 3.14E-11 iu: 2.27E+00 rsn:   0
  4 2r: 9.24E-16 2x: 9.50E+05 2u: 1.86E-03 ir: 6.54E-16 iu: 1.30E-03 rsn: rtol
 Step     55 Time=  3.08333E+00 Dt=  8.33333E-02 [hour] snes_conv_reason:    3
  newton =   4 [     231] linear =     4 [       231] cuts =  0 [   0]
  --> max chng: dpmx=   1.0738E+03

== RICHARDS FLOW ===============================================================
  0 2r: 2.55E-06 2x: 0.00E+00 2u: 0.00E+00 ir: 1.25E-06 iu: 0.00E+00 rsn:   0
  1 2r: 3.85E-07 2x: 9.50E+05 2u: 2.05E+03 ir: 2.65E-07 iu: 1.24E+03 rsn:   0
  2 2r: 8.69E-09 2x: 9.50E+05 2u: 1.60E+02 ir: 7.48E-09 iu: 1.03E+02 rsn:   0
  3 2r: 3.88E-12 2x: 9.50E+05 2u: 3.07E+00 ir: 3.64E-12 iu: 2.00E+00 rsn:   0
  4 2r: 3.56E-18 2x: 9.50E+05 2u: 8.64E-04 ir: 1.61E-18 iu: 6.77E-04 rsn: rtol
 Step     56 Time=  3.16667E+00 Dt=  8.33333E-02 [hour] snes_conv_reason:    3
  newton =   4 [     235] linear =     4 [       235] cuts =  0 [   0]
  --> max chng: dpmx=   1.1315E+03

== RICHARDS FLOW ===============================================================
  0 2r: 2.54E-06 2x: 0.00E+00 2u: 0.00E+00 ir: 1.27E-06 iu: 0.00E+00 rsn:   0
  1 2r: 3.64E-07 2x: 9.51E+05 2u: 2.05E+03 ir: 2.30E-07 iu: 1.15E+03 rsn:   0
  2 2r: 1.05E-08 2x: 9.51E+05 2u: 1.58E+02 ir: 7.35E-09 iu: 1.12E+02 rsn:   0
  3 2r: 9.07E-12 2x: 9.51E+05 2u: 2.82E+00 ir: 5.39E-12 iu: 2.20E+00 rsn:   0
  4 2r: 1.26E-17 2x: 9.51E+05 2u: 1.63E-03 ir: 8.81E-18 iu: 1.19E-03 rsn: rtol
 Step     57 Time=  3.25000E+00 Dt=  8.33333E-02 [hour] snes_conv_reason:    3
  newton =   4 [     239] linear =     4 [       239] cuts =  0 [   0]
  --> max chng: dpmx=   1.0886E+03

== RICHARDS FLOW ===============================================================
  0 2r: 2.53E-06 2x: 0.00E+00 2u: 0.00E+00 ir: 1.25E-06 iu: 0.00E+00 rsn:   0
  1 2r: 3.58E-07 2x: 9.51E+05 2u: 2.04E+03 ir: 2.57E-07 iu: 1.22E+03 rsn:   0
  2 2r: 8.51E-09 2x: 9.51E+05 2u: 1.57E+02 ir: 6.50E-09 iu: 1.07E+02 rsn:   0
  3 2r: 2.95E-12 2x: 9.51E+05 2u: 3.09E+00 ir: 2.36E-12 iu: 1.96E+00 rsn:   0
  4 2r: 3.65E-18 2x: 9.51E+05 2u: 1.04E-03 ir: 1.25E-18 iu: 6.07E-04 rsn: rtol
 Step     58 Time=  3.33333E+00 Dt=  8.33333E-02 [hour] snes_conv_reason:    3
  newton =   4 [     243] linear =     4 [       243] cuts =  0 [   0]
  --> max chng: dpmx=   1.1129E+03

== RICHARDS FLOW ===============================================================
  0 2r: 2.53E-06 2x: 0.00E+00 2u: 0.00E+00 ir: 1.26E-06 iu: 0.00E+00 rsn:   0
  1 2r: 3.53E-07 2x: 9.52E+05 2u: 2.03E+03 ir: 2.41E-07 iu: 1.18E+03 rsn:   0
  2 2r: 9.28E-09 2x: 9.52E+05 2u: 1.56E+02 ir: 7.50E-09 iu: 1.08E+02 rsn:   0
  3 2r: 6.41E-12 2x: 9.52E+05 2u: 2.64E+00 ir: 4.97E-12 iu: 2.06E+00 rsn:   0
  4 2r: 4.41E-18 2x: 9.52E+05 2u: 1.31E-03 ir: 1.63E-18 iu: 9.88E-04 rsn: rtol
 Step     59 Time=  3.41667E+00 Dt=  8.33333E-02 [hour] snes_conv_reason:    3
  newton =   4 [     247] linear =     4 [       247] cuts =  0 [   0]
  --> max chng: dpmx=   1.1040E+03

== RICHARDS FLOW ===============================================================
  0 2r: 2.52E-06 2x: 0.00E+00 2u: 0.00E+00 ir: 1.25E-06 iu: 0.00E+00 rsn:   0
  1 2r: 3.46E-07 2x: 9.52E+05 2u: 2.03E+03 ir: 2.46E-07 iu: 1.20E+03 rsn:   0
  2 2r: 8.61E-09 2x: 9.52E+05 2u: 1.54E+02 ir: 5.52E-09 iu: 1.09E+02 rsn:   0
  3 2r: 3.56E-12 2x: 9.52E+05 2u: 3.00E+00 ir: 2.50E-12 iu: 1.88E+00 rsn:   0
  4 2r: 3.20E-18 2x: 9.52E+05 2u: 1.27E-03 ir: 1.44E-18 iu: 8.84E-04 rsn: rtol
 Step     60 Time=  3.50000E+00 Dt=  8.33333E-02 [hour] snes_conv_reason:    3
  newton =   4 [     251] linear =     4 [       251] cuts =  0 [   0]
  --> max chng: dpmx=   1.0891E+03

== RICHARDS FLOW ===============================================================
  0 2r: 2.51E-06 2x: 0.00E+00 2u: 0.00E+00 ir: 1.24E-06 iu: 0.00E+00 rsn:   0
  1 2r: 3.45E-07 2x: 9.53E+05 2u: 2.02E+03 ir: 2.46E-07 iu: 1.19E+03 rsn:   0
  2 2r: 8.41E-09 2x: 9.53E+05 2u: 1.54E+02 ir: 7.30E-09 iu: 1.03E+02 rsn:   0
  3 2r: 5.12E-12 2x: 9.53E+05 2u: 2.60E+00 ir: 4.22E-12 iu: 1.90E+00 rsn:   0
  4 2r: 5.48E-18 2x: 9.53E+05 2u: 9.62E-04 ir: 3.66E-18 iu: 7.86E-04 rsn: rtol
 Step     61 Time=  3.58333E+00 Dt=  8.33333E-02 [hour] snes_conv_reason:    3
  newton =   4 [     255] linear =     4 [       255] cuts =  0 [   0]
  --> max chng: dpmx=   1.1093E+03

== RICHARDS FLOW ===============================================================
  0 2r: 2.50E-06 2x: 0.00E+00 2u: 0.00E+00 ir: 1.25E-06 iu: 0.00E+00 rsn:   0
  1 2r: 3.42E-07 2x: 9.54E+05 2u: 2.02E+03 ir: 2.34E-07 iu: 1.17E+03 rsn:   0
  2 2r: 8.68E-09 2x: 9.54E+05 2u: 1.52E+02 ir: 5.23E-09 iu: 1.09E+02 rsn:   0
  3 2r: 4.47E-12 2x: 9.54E+05 2u: 2.83E+00 ir: 3.51E-12 iu: 1.98E+00 rsn:   0
  4 2r: 3.29E-18 2x: 9.54E+05 2u: 1.38E-03 ir: 1.10E-18 iu: 9.98E-04 rsn: rtol
 Step     62 Time=  3.66667E+00 Dt=  8.33333E-02 [hour] snes_conv_reason:    3
  newton =   4 [     259] linear =     4 [       259] cuts =  0 [   0]
  --> max chng: dpmx=   1.0618E+03

== RICHARDS FLOW ===============================================================
  0 2r: 2.50E-06 2x: 0.00E+00 2u: 0.00E+00 ir: 1.22E-06 iu: 0.00E+00 rsn:   0
  1 2r: 3.39E-07 2x: 9.54E+05 2u: 2.01E+03 ir: 2.47E-07 iu: 1.20E+03 rsn:   0
  2 2r: 7.82E-09 2x: 9.54E+05 2u: 1.52E+02 ir: 6.85E-09 iu: 9.74E+01 rsn:   0
  3 2r: 3.78E-12 2x: 9.54E+05 2u: 2.66E+00 ir: 3.35E-12 iu: 1.72E+00 rsn:   0
  4 2r: 5.08E-18 2x: 9.54E+05 2u: 7.09E-04 ir: 2.91E-18 iu: 6.17E-04 rsn: rtol
 Step     63 Time=  3.75000E+00 Dt=  8.33333E-02 [hour] snes_conv_reason:    3
  newton =   4 [     263] linear =     4 [       263] cuts =  0 [   0]
  --> max chng: dpmx=   1.1066E+03

== RICHARDS FLOW ===============================================================
  0 2r: 2.49E-06 2x: 0.00E+00 2u: 0.00E+00 ir: 1.24E-06 iu: 0.00E+00 rsn:   0
  1 2r: 3.41E-07 2x: 9.55E+05 2u: 2.01E+03 ir: 2.21E-07 iu: 1.14E+03 rsn:   0
  2 2r: 8.21E-08 2x: 9.55E+05 2u: 1.51E+02 ir: 5.78E-08 iu: 1.08E+02 rsn:   0
  3 2r: 2.18E-08 2x: 9.55E+05 2u: 2.68E+00 ir: 1.54E-08 iu: 2.00E+00 rsn:   0
  4 2r: 8.17E-08 2x: 9.55E+05 2u: 4.54E-01 ir: 5.78E-08 iu: 1.73E-01 rsn:   0
  5 2r: 2.18E-08 2x: 9.55E+05 2u: 4.54E-01 ir: 1.54E-08 iu: 1.73E-01 rsn:   0
  6 2r: 8.17E-08 2x: 9.55E+05 2u: 4.54E-01 ir: 5.78E-08 iu: 1.73E-01 rsn:   0
  7 2r: 2.18E-08 2x: 9.55E+05 2u: 4.54E-01 ir: 1.54E-08 iu: 1.73E-01 rsn:   0
  8 2r: 8.17E-08 2x: 9.55E+05 2u: 4.54E-01 ir: 5.78E-08 iu: 1.73E-01 rsn:   0
  9 2r: 2.18E-08 2x: 9.55E+05 2u: 4.54E-01 ir: 1.54E-08 iu: 1.73E-01 rsn:   0
 10 2r: 8.17E-08 2x: 9.55E+05 2u: 4.54E-01 ir: 5.78E-08 iu: 1.73E-01 rsn:   0
 11 2r: 2.18E-08 2x: 9.55E+05 2u: 4.54E-01 ir: 1.54E-08 iu: 1.73E-01 rsn:   0
 12 2r: 8.17E-08 2x: 9.55E+05 2u: 4.54E-01 ir: 5.78E-08 iu: 1.73E-01 rsn:   0
 13 2r: 2.18E-08 2x: 9.55E+05 2u: 4.54E-01 ir: 1.54E-08 iu: 1.73E-01 rsn:   0
 14 2r: 8.17E-08 2x: 9.55E+05 2u: 4.54E-01 ir: 5.78E-08 iu: 1.73E-01 rsn:   0
 15 2r: 2.18E-08 2x: 9.55E+05 2u: 4.54E-01 ir: 1.54E-08 iu: 1.73E-01 rsn:   0
 16 2r: 8.17E-08 2x: 9.55E+05 2u: 4.54E-01 ir: 5.78E-08 iu: 1.73E-01 rsn:   0
 17 2r: 2.18E-08 2x: 9.55E+05 2u: 4.54E-01 ir: 1.54E-08 iu: 1.73E-01 rsn:   0
 18 2r: 8.17E-08 2x: 9.55E+05 2u: 4.54E-01 ir: 5.78E-08 iu: 1.73E-01 rsn:   0
 19 2r: 2.18E-08 2x: 9.55E+05 2u: 4.54E-01 ir: 1.54E-08 iu: 1.73E-01 rsn:   0
 20 2r: 8.17E-08 2x: 9.55E+05 2u: 4.54E-01 ir: 5.78E-08 iu: 1.73E-01 rsn:   0
 21 2r: 2.18E-08 2x: 9.55E+05 2u: 4.54E-01 ir: 1.54E-08 iu: 1.73E-01 rsn:   0
 22 2r: 8.17E-08 2x: 9.55E+05 2u: 4.54E-01 ir: 5.78E-08 iu: 1.73E-01 rsn:   0
 23 2r: 2.18E-08 2x: 9.55E+05 2u: 4.54E-01 ir: 1.54E-08 iu: 1.73E-01 rsn:   0
 24 2r: 8.17E-08 2x: 9.55E+05 2u: 4.54E-01 ir: 5.78E-08 iu: 1.73E-01 rsn:   0
 25 2r: 2.18E-08 2x: 9.55E+05 2u: 4.54E-01 ir: 1.54E-08 iu: 1.73E-01 rsn:   0
 26 2r: 8.17E-08 2x: 9.55E+05 2u: 4.54E-01 ir: 5.78E-08 iu: 1.73E-01 rsn:   0
 27 2r: 2.18E-08 2x: 9.55E+05 2u: 4.54E-01 ir: 1.54E-08 iu: 1.73E-01 rsn:   0
 28 2r: 8.17E-08 2x: 9.55E+05 2u: 4.54E-01 ir: 5.78E-08 iu: 1.73E-01 rsn:   0
 29 2r: 2.18E-08 2x: 9.55E+05 2u: 4.54E-01 ir: 1.54E-08 iu: 1.73E-01 rsn:   0
 30 2r: 8.17E-08 2x: 9.55E+05 2u: 4.54E-01 ir: 5.78E-08 iu: 1.73E-01 rsn:   0
 31 2r: 2.18E-08 2x: 9.55E+05 2u: 4.54E-01 ir: 1.54E-08 iu: 1.73E-01 rsn:   0
 32 2r: 8.17E-08 2x: 9.55E+05 2u: 4.54E-01 ir: 5.78E-08 iu: 1.73E-01 rsn:   0
 33 2r: 2.18E-08 2x: 9.55E+05 2u: 4.54E-01 ir: 1.54E-08 iu: 1.73E-01 rsn:   0
 34 2r: 8.17E-08 2x: 9.55E+05 2u: 4.54E-01 ir: 5.78E-08 iu: 1.73E-01 rsn:   0
 35 2r: 2.18E-08 2x: 9.55E+05 2u: 4.54E-01 ir: 1.54E-08 iu: 1.73E-01 rsn:   0
 36 2r: 8.17E-08 2x: 9.55E+05 2u: 4.54E-01 ir: 5.78E-08 iu: 1.73E-01 rsn:   0
 37 2r: 2.18E-08 2x: 9.55E+05 2u: 4.54E-01 ir: 1.54E-08 iu: 1.73E-01 rsn:   0
 38 2r: 8.17E-08 2x: 9.55E+05 2u: 4.54E-01 ir: 5.78E-08 iu: 1.73E-01 rsn:   0
 39 2r: 2.18E-08 2x: 9.55E+05 2u: 4.54E-01 ir: 1.54E-08 iu: 1.73E-01 rsn:   0
 40 2r: 8.17E-08 2x: 9.55E+05 2u: 4.54E-01 ir: 5.78E-08 iu: 1.73E-01 rsn:   0
 41 2r: 2.18E-08 2x: 9.55E+05 2u: 4.54E-01 ir: 1.54E-08 iu: 1.73E-01 rsn:   0
 42 2r: 8.17E-08 2x: 9.55E+05 2u: 4.54E-01 ir: 5.78E-08 iu: 1.73E-01 rsn:   0
 43 2r: 2.18E-08 2x: 9.55E+05 2u: 4.54E-01 ir: 1.54E-08 iu: 1.73E-01 rsn:   0
 44 2r: 8.17E-08 2x: 9.55E+05 2u: 4.54E-01 ir: 5.78E-08 iu: 1.73E-01 rsn:   0
 45 2r: 2.18E-08 2x: 9.55E+05 2u: 4.54E-01 ir: 1.54E-08 iu: 1.73E-01 rsn:   0
 46 2r: 8.17E-08 2x: 9.55E+05 2u: 4.54E-01 ir: 5.78E-08 iu: 1.73E-01 rsn:   0
 47 2r: 2.18E-08 2x: 9.55E+05 2u: 4.54E-01 ir: 1.54E-08 iu: 1.73E-01 rsn:   0
 48 2r: 8.17E-08 2x: 9.55E+05 2u: 4.54E-01 ir: 5.78E-08 iu: 1.73E-01 rsn:   0
 49 2r: 2.18E-08 2x: 9.55E+05 2u: 4.54E-01 ir: 1.54E-08 iu: 1.73E-01 rsn:   0
 50 2r: 8.17E-08 2x: 9.55E+05 2u: 4.54E-01 ir: 5.78E-08 iu: 1.73E-01 rsn:   0
  0 2r: 2.49E-06 2x: 0.00E+00 2u: 0.00E+00 ir: 1.24E-06 iu: 0.00E+00 rsn:   0
  1 2r: 1.22E-07 2x: 9.54E+05 2u: 9.49E+02 ir: 7.97E-08 iu: 5.49E+02 rsn:   0
  2 2r: 1.71E-09 2x: 9.54E+05 2u: 3.41E+01 ir: 1.17E-09 iu: 2.50E+01 rsn:   0
  3 2r: 1.92E-12 2x: 9.54E+05 2u: 1.09E-01 ir: 1.36E-12 iu: 8.06E-02 rsn:   0
  4 2r: 7.19E-18 2x: 9.54E+05 2u: 1.65E-05 ir: 4.62E-18 iu: 6.39E-06 rsn: rtol
 Step     64 Time=  3.79167E+00 Dt=  4.16667E-02 [hour] snes_conv_reason:    3
  newton =  54 [     317] linear =    54 [       317] cuts =  1 [   1]
  --> max chng: dpmx=   5.2340E+02

== RICHARDS FLOW ===============================================================
  0 2r: 2.49E-06 2x: 0.00E+00 2u: 0.00E+00 ir: 1.23E-06 iu: 0.00E+00 rsn:   0
  1 2r: 1.19E-07 2x: 9.55E+05 2u: 9.57E+02 ir: 7.88E-08 iu: 5.39E+02 rsn:   0
  2 2r: 4.62E-10 2x: 9.55E+05 2u: 3.50E+01 ir: 3.89E-10 iu: 2.52E+01 rsn:   0
  3 2r: 9.92E-15 2x: 9.55E+05 2u: 1.02E-01 ir: 8.39E-15 iu: 8.94E-02 rsn: rtol
 Step     65 Time=  3.83333E+00 Dt=  4.16667E-02 [hour] snes_conv_reason:    3
  newton =   3 [     320] linear =     3 [       320] cuts =  0 [   1]
  --> max chng: dpmx=   5.2290E+02

== RICHARDS FLOW ===============================================================
  0 2r: 2.50E-06 2x: 0.00E+00 2u: 0.00E+00 ir: 1.22E-06 iu: 0.00E+00 rsn:   0
  1 2r: 1.18E-07 2x: 9.55E+05 2u: 9.63E+02 ir: 8.53E-08 iu: 5.74E+02 rsn:   0
  2 2r: 4.39E-10 2x: 9.55E+05 2u: 3.59E+01 ir: 4.04E-10 iu: 2.34E+01 rsn:   0
  3 2r: 7.54E-15 2x: 9.55E+05 2u: 1.07E-01 ir: 6.95E-15 iu: 8.01E-02 rsn: rtol
 Step     66 Time=  3.87500E+00 Dt=  4.16667E-02 [hour] snes_conv_reason:    3
  newton =   3 [     323] linear =     3 [       323] cuts =  0 [   1]
  --> max chng: dpmx=   5.5142E+02

== RICHARDS FLOW ===============================================================
  0 2r: 2.50E-06 2x: 0.00E+00 2u: 0.00E+00 ir: 1.25E-06 iu: 0.00E+00 rsn:   0
  1 2r: 1.21E-07 2x: 9.55E+05 2u: 9.69E+02 ir: 8.42E-08 iu: 5.79E+02 rsn:   0
  2 2r: 4.86E-10 2x: 9.55E+05 2u: 3.63E+01 ir: 3.35E-10 iu: 2.67E+01 rsn:   0
  3 2r: 7.80E-15 2x: 9.55E+05 2u: 1.25E-01 ir: 4.27E-15 iu: 8.68E-02 rsn: rtol
 Step     67 Time=  3.91667E+00 Dt=  4.16667E-02 [hour] snes_conv_reason:    3
  newton =   3 [     326] linear =     3 [       326] cuts =  0 [   1]
  --> max chng: dpmx=   5.5251E+02

== RICHARDS FLOW ===============================================================
  0 2r: 2.50E-06 2x: 0.00E+00 2u: 0.00E+00 ir: 1.25E-06 iu: 0.00E+00 rsn:   0
  1 2r: 1.26E-07 2x: 9.55E+05 2u: 9.74E+02 ir: 7.88E-08 iu: 5.60E+02 rsn:   0
  2 2r: 1.74E-09 2x: 9.55E+05 2u: 3.68E+01 ir: 1.18E-09 iu: 2.75E+01 rsn:   0
  3 2r: 2.10E-12 2x: 9.55E+05 2u: 1.22E-01 ir: 1.48E-12 iu: 1.04E-01 rsn:   0
  4 2r: 9.64E-18 2x: 9.55E+05 2u: 1.83E-05 ir: 6.26E-18 iu: 6.89E-06 rsn: rtol
 Step     68 Time=  3.95833E+00 Dt=  4.16667E-02 [hour] snes_conv_reason:    3
  newton =   4 [     330] linear =     4 [       330] cuts =  0 [   1]
  --> max chng: dpmx=   5.3212E+02

== RICHARDS FLOW ===============================================================
  0 2r: 2.51E-06 2x: 0.00E+00 2u: 0.00E+00 ir: 1.23E-06 iu: 0.00E+00 rsn:   0
  1 2r: 1.23E-07 2x: 9.56E+05 2u: 9.79E+02 ir: 8.80E-08 iu: 5.81E+02 rsn:   0
  2 2r: 4.94E-10 2x: 9.56E+05 2u: 3.76E+01 ir: 4.57E-10 iu: 2.60E+01 rsn:   0
  3 2r: 1.14E-14 2x: 9.56E+05 2u: 1.13E-01 ir: 9.89E-15 iu: 9.67E-02 rsn: rtol
 Step     69 Time=  4.00000E+00 Dt=  4.16667E-02 [hour] snes_conv_reason:    3
  newton =   3 [     333] linear =     3 [       333] cuts =  0 [   1]
  --> max chng: dpmx=   5.5949E+02

== RICHARDS FLOW ===============================================================
  0 2r: 2.51E-06 2x: 0.00E+00 2u: 0.00E+00 ir: 1.26E-06 iu: 0.00E+00 rsn:   0
  1 2r: 1.23E-07 2x: 9.56E+05 2u: 9.82E+02 ir: 8.91E-08 iu: 5.99E+02 rsn:   0
  2 2r: 4.80E-10 2x: 9.56E+05 2u: 3.80E+01 ir: 4.05E-10 iu: 2.68E+01 rsn:   0
  3 2r: 6.22E-15 2x: 9.56E+05 2u: 1.30E-01 ir: 5.77E-15 iu: 7.85E-02 rsn: rtol
 Step     70 Time=  4.04167E+00 Dt=  4.16667E-02 [hour] snes_conv_reason:    3
  newton =   3 [     336] linear =     3 [       336] cuts =  0 [   1]
  --> max chng: dpmx=   5.7220E+02

== RICHARDS FLOW ===============================================================
  0 2r: 2.51E-06 2x: 0.00E+00 2u: 0.00E+00 ir: 1.27E-06 iu: 0.00E+00 rsn:   0
  1 2r: 1.25E-07 2x: 9.56E+05 2u: 9.85E+02 ir: 8.39E-08 iu: 5.88E+02 rsn:   0
  2 2r: 5.57E-10 2x: 9.56E+05 2u: 3.79E+01 ir: 3.71E-10 iu: 2.89E+01 rsn:   0
  3 2r: 1.20E-14 2x: 9.56E+05 2u: 1.41E-01 ir: 9.32E-15 iu: 1.10E-01 rsn: rtol
 Step     71 Time=  4.08333E+00 Dt=  4.16667E-02 [hour] snes_conv_reason:    3
  newton =   3 [     339] linear =     3 [       339] cuts =  0 [   1]
  --> max chng: dpmx=   5.5916E+02

== RICHARDS FLOW ===============================================================
  0 2r: 2.51E-06 2x: 0.00E+00 2u: 0.00E+00 ir: 1.25E-06 iu: 0.00E+00 rsn:   0
  1 2r: 3.66E-07 2x: 9.57E+05 2u: 2.09E+03 ir: 2.71E-07 iu: 1.26E+03 rsn:   0
  2 2r: 1.04E-07 2x: 9.57E+05 2u: 1.70E+02 ir: 7.31E-08 iu: 1.15E+02 rsn:   0
  3 2r: 3.12E-08 2x: 9.57E+05 2u: 3.15E+00 ir: 2.21E-08 iu: 2.38E+00 rsn:   0
  4 2r: 1.03E-07 2x: 9.57E+05 2u: 6.91E-01 ir: 7.31E-08 iu: 2.53E-01 rsn:   0
  5 2r: 3.13E-08 2x: 9.57E+05 2u: 6.92E-01 ir: 2.21E-08 iu: 2.53E-01 rsn:   0
  6 2r: 1.03E-07 2x: 9.57E+05 2u: 6.92E-01 ir: 7.31E-08 iu: 2.53E-01 rsn:   0
  7 2r: 3.13E-08 2x: 9.57E+05 2u: 6.92E-01 ir: 2.21E-08 iu: 2.53E-01 rsn:   0
  8 2r: 1.03E-07 2x: 9.57E+05 2u: 6.92E-01 ir: 7.31E-08 iu: 2.53E-01 rsn:   0
  9 2r: 3.13E-08 2x: 9.57E+05 2u: 6.92E-01 ir: 2.21E-08 iu: 2.53E-01 rsn:   0
 10 2r: 1.03E-07 2x: 9.57E+05 2u: 6.92E-01 ir: 7.31E-08 iu: 2.53E-01 rsn:   0
 11 2r: 3.13E-08 2x: 9.57E+05 2u: 6.92E-01 ir: 2.21E-08 iu: 2.53E-01 rsn:   0
 12 2r: 1.03E-07 2x: 9.57E+05 2u: 6.92E-01 ir: 7.31E-08 iu: 2.53E-01 rsn:   0
 13 2r: 3.13E-08 2x: 9.57E+05 2u: 6.92E-01 ir: 2.21E-08 iu: 2.53E-01 rsn:   0
 14 2r: 1.03E-07 2x: 9.57E+05 2u: 6.92E-01 ir: 7.31E-08 iu: 2.53E-01 rsn:   0
 15 2r: 3.13E-08 2x: 9.57E+05 2u: 6.92E-01 ir: 2.21E-08 iu: 2.53E-01 rsn:   0
 16 2r: 1.03E-07 2x: 9.57E+05 2u: 6.92E-01 ir: 7.31E-08 iu: 2.53E-01 rsn:   0
 17 2r: 3.13E-08 2x: 9.57E+05 2u: 6.92E-01 ir: 2.21E-08 iu: 2.53E-01 rsn:   0
 18 2r: 1.03E-07 2x: 9.57E+05 2u: 6.92E-01 ir: 7.31E-08 iu: 2.53E-01 rsn:   0
 19 2r: 3.13E-08 2x: 9.57E+05 2u: 6.92E-01 ir: 2.21E-08 iu: 2.53E-01 rsn:   0
 20 2r: 1.03E-07 2x: 9.57E+05 2u: 6.92E-01 ir: 7.31E-08 iu: 2.53E-01 rsn:   0
 21 2r: 3.13E-08 2x: 9.57E+05 2u: 6.92E-01 ir: 2.21E-08 iu: 2.53E-01 rsn:   0
 22 2r: 1.03E-07 2x: 9.57E+05 2u: 6.92E-01 ir: 7.31E-08 iu: 2.53E-01 rsn:   0
 23 2r: 3.13E-08 2x: 9.57E+05 2u: 6.92E-01 ir: 2.21E-08 iu: 2.53E-01 rsn:   0
 24 2r: 1.03E-07 2x: 9.57E+05 2u: 6.92E-01 ir: 7.31E-08 iu: 2.53E-01 rsn:   0
 25 2r: 3.13E-08 2x: 9.57E+05 2u: 6.92E-01 ir: 2.21E-08 iu: 2.53E-01 rsn:   0
 26 2r: 1.03E-07 2x: 9.57E+05 2u: 6.92E-01 ir: 7.31E-08 iu: 2.53E-01 rsn:   0
 27 2r: 3.13E-08 2x: 9.57E+05 2u: 6.92E-01 ir: 2.21E-08 iu: 2.53E-01 rsn:   0
 28 2r: 1.03E-07 2x: 9.57E+05 2u: 6.92E-01 ir: 7.31E-08 iu: 2.53E-01 rsn:   0
 29 2r: 3.13E-08 2x: 9.57E+05 2u: 6.92E-01 ir: 2.21E-08 iu: 2.53E-01 rsn:   0
 30 2r: 1.03E-07 2x: 9.57E+05 2u: 6.92E-01 ir: 7.31E-08 iu: 2.53E-01 rsn:   0
 31 2r: 3.13E-08 2x: 9.57E+05 2u: 6.92E-01 ir: 2.21E-08 iu: 2.53E-01 rsn:   0
 32 2r: 1.03E-07 2x: 9.57E+05 2u: 6.92E-01 ir: 7.31E-08 iu: 2.53E-01 rsn:   0
 33 2r: 3.13E-08 2x: 9.57E+05 2u: 6.92E-01 ir: 2.21E-08 iu: 2.53E-01 rsn:   0
 34 2r: 1.03E-07 2x: 9.57E+05 2u: 6.92E-01 ir: 7.31E-08 iu: 2.53E-01 rsn:   0
 35 2r: 3.13E-08 2x: 9.57E+05 2u: 6.92E-01 ir: 2.21E-08 iu: 2.53E-01 rsn:   0
 36 2r: 1.03E-07 2x: 9.57E+05 2u: 6.92E-01 ir: 7.31E-08 iu: 2.53E-01 rsn:   0
 37 2r: 3.13E-08 2x: 9.57E+05 2u: 6.92E-01 ir: 2.21E-08 iu: 2.53E-01 rsn:   0
 38 2r: 1.03E-07 2x: 9.57E+05 2u: 6.92E-01 ir: 7.31E-08 iu: 2.53E-01 rsn:   0
 39 2r: 3.13E-08 2x: 9.57E+05 2u: 6.92E-01 ir: 2.21E-08 iu: 2.53E-01 rsn:   0
 40 2r: 1.03E-07 2x: 9.57E+05 2u: 6.92E-01 ir: 7.31E-08 iu: 2.53E-01 rsn:   0
 41 2r: 3.13E-08 2x: 9.57E+05 2u: 6.92E-01 ir: 2.21E-08 iu: 2.53E-01 rsn:   0
 42 2r: 1.03E-07 2x: 9.57E+05 2u: 6.92E-01 ir: 7.31E-08 iu: 2.53E-01 rsn:   0
 43 2r: 3.13E-08 2x: 9.57E+05 2u: 6.92E-01 ir: 2.21E-08 iu: 2.53E-01 rsn:   0
 44 2r: 1.03E-07 2x: 9.57E+05 2u: 6.92E-01 ir: 7.31E-08 iu: 2.53E-01 rsn:   0
 45 2r: 3.13E-08 2x: 9.57E+05 2u: 6.92E-01 ir: 2.21E-08 iu: 2.53E-01 rsn:   0
 46 2r: 1.03E-07 2x: 9.57E+05 2u: 6.92E-01 ir: 7.31E-08 iu: 2.53E-01 rsn:   0
 47 2r: 3.13E-08 2x: 9.57E+05 2u: 6.92E-01 ir: 2.21E-08 iu: 2.53E-01 rsn:   0
 48 2r: 1.03E-07 2x: 9.57E+05 2u: 6.92E-01 ir: 7.31E-08 iu: 2.53E-01 rsn:   0
 49 2r: 3.13E-08 2x: 9.57E+05 2u: 6.92E-01 ir: 2.21E-08 iu: 2.53E-01 rsn:   0
 50 2r: 1.03E-07 2x: 9.57E+05 2u: 6.92E-01 ir: 7.31E-08 iu: 2.53E-01 rsn:   0
  0 2r: 2.51E-06 2x: 0.00E+00 2u: 0.00E+00 ir: 1.25E-06 iu: 0.00E+00 rsn:   0
  1 2r: 1.29E-07 2x: 9.57E+05 2u: 9.87E+02 ir: 8.76E-08 iu: 5.65E+02 rsn:   0
  2 2r: 1.62E-09 2x: 9.57E+05 2u: 3.84E+01 ir: 1.08E-09 iu: 2.82E+01 rsn:   0
  3 2r: 1.80E-12 2x: 9.57E+05 2u: 1.26E-01 ir: 1.27E-12 iu: 1.12E-01 rsn:   0
  4 2r: 6.59E-18 2x: 9.57E+05 2u: 1.61E-05 ir: 3.82E-18 iu: 5.90E-06 rsn: rtol
 Step     72 Time=  4.12500E+00 Dt=  4.16667E-02 [hour] snes_conv_reason:    3
  newton =  54 [     393] linear =    54 [       393] cuts =  1 [   2]
  --> max chng: dpmx=   5.4806E+02

== RICHARDS FLOW ===============================================================
  0 2r: 2.51E-06 2x: 0.00E+00 2u: 0.00E+00 ir: 1.25E-06 iu: 0.00E+00 rsn:   0
  1 2r: 1.27E-07 2x: 9.57E+05 2u: 9.89E+02 ir: 9.21E-08 iu: 6.03E+02 rsn:   0
  2 2r: 2.59E-08 2x: 9.57E+05 2u: 3.90E+01 ir: 1.83E-08 iu: 2.57E+01 rsn:   0
  3 2r: 3.24E-09 2x: 9.57E+05 2u: 1.44E-01 ir: 2.29E-09 iu: 9.55E-02 rsn:   0
  4 2r: 2.59E-08 2x: 9.57E+05 2u: 7.13E-02 ir: 1.83E-08 iu: 2.65E-02 rsn:   0
  5 2r: 3.24E-09 2x: 9.57E+05 2u: 7.13E-02 ir: 2.29E-09 iu: 2.65E-02 rsn:   0
  6 2r: 2.59E-08 2x: 9.57E+05 2u: 7.13E-02 ir: 1.83E-08 iu: 2.65E-02 rsn:   0
  7 2r: 3.24E-09 2x: 9.57E+05 2u: 7.13E-02 ir: 2.29E-09 iu: 2.65E-02 rsn:   0
  8 2r: 2.59E-08 2x: 9.57E+05 2u: 7.13E-02 ir: 1.83E-08 iu: 2.65E-02 rsn:   0
  9 2r: 3.24E-09 2x: 9.57E+05 2u: 7.13E-02 ir: 2.29E-09 iu: 2.65E-02 rsn:   0
 10 2r: 2.59E-08 2x: 9.57E+05 2u: 7.13E-02 ir: 1.83E-08 iu: 2.65E-02 rsn:   0
 11 2r: 3.24E-09 2x: 9.57E+05 2u: 7.13E-02 ir: 2.29E-09 iu: 2.65E-02 rsn:   0
 12 2r: 2.59E-08 2x: 9.57E+05 2u: 7.13E-02 ir: 1.83E-08 iu: 2.65E-02 rsn:   0
 13 2r: 3.24E-09 2x: 9.57E+05 2u: 7.13E-02 ir: 2.29E-09 iu: 2.65E-02 rsn:   0
 14 2r: 2.59E-08 2x: 9.57E+05 2u: 7.13E-02 ir: 1.83E-08 iu: 2.65E-02 rsn:   0
 15 2r: 3.24E-09 2x: 9.57E+05 2u: 7.13E-02 ir: 2.29E-09 iu: 2.65E-02 rsn:   0
 16 2r: 2.59E-08 2x: 9.57E+05 2u: 7.13E-02 ir: 1.83E-08 iu: 2.65E-02 rsn:   0
 17 2r: 3.24E-09 2x: 9.57E+05 2u: 7.13E-02 ir: 2.29E-09 iu: 2.65E-02 rsn:   0
 18 2r: 2.59E-08 2x: 9.57E+05 2u: 7.13E-02 ir: 1.83E-08 iu: 2.65E-02 rsn:   0
 19 2r: 3.24E-09 2x: 9.57E+05 2u: 7.13E-02 ir: 2.29E-09 iu: 2.65E-02 rsn:   0
 20 2r: 2.59E-08 2x: 9.57E+05 2u: 7.13E-02 ir: 1.83E-08 iu: 2.65E-02 rsn:   0
 21 2r: 3.24E-09 2x: 9.57E+05 2u: 7.13E-02 ir: 2.29E-09 iu: 2.65E-02 rsn:   0
 22 2r: 2.59E-08 2x: 9.57E+05 2u: 7.13E-02 ir: 1.83E-08 iu: 2.65E-02 rsn:   0
 23 2r: 3.24E-09 2x: 9.57E+05 2u: 7.13E-02 ir: 2.29E-09 iu: 2.65E-02 rsn:   0
 24 2r: 2.59E-08 2x: 9.57E+05 2u: 7.13E-02 ir: 1.83E-08 iu: 2.65E-02 rsn:   0
 25 2r: 3.24E-09 2x: 9.57E+05 2u: 7.13E-02 ir: 2.29E-09 iu: 2.65E-02 rsn:   0
 26 2r: 2.59E-08 2x: 9.57E+05 2u: 7.13E-02 ir: 1.83E-08 iu: 2.65E-02 rsn:   0
 27 2r: 3.24E-09 2x: 9.57E+05 2u: 7.13E-02 ir: 2.29E-09 iu: 2.65E-02 rsn:   0
 28 2r: 2.59E-08 2x: 9.57E+05 2u: 7.13E-02 ir: 1.83E-08 iu: 2.65E-02 rsn:   0
 29 2r: 3.24E-09 2x: 9.57E+05 2u: 7.13E-02 ir: 2.29E-09 iu: 2.65E-02 rsn:   0
 30 2r: 2.59E-08 2x: 9.57E+05 2u: 7.13E-02 ir: 1.83E-08 iu: 2.65E-02 rsn:   0
 31 2r: 3.24E-09 2x: 9.57E+05 2u: 7.13E-02 ir: 2.29E-09 iu: 2.65E-02 rsn:   0
 32 2r: 2.59E-08 2x: 9.57E+05 2u: 7.13E-02 ir: 1.83E-08 iu: 2.65E-02 rsn:   0
 33 2r: 3.24E-09 2x: 9.57E+05 2u: 7.13E-02 ir: 2.29E-09 iu: 2.65E-02 rsn:   0
 34 2r: 2.59E-08 2x: 9.57E+05 2u: 7.13E-02 ir: 1.83E-08 iu: 2.65E-02 rsn:   0
 35 2r: 3.24E-09 2x: 9.57E+05 2u: 7.13E-02 ir: 2.29E-09 iu: 2.65E-02 rsn:   0
 36 2r: 2.59E-08 2x: 9.57E+05 2u: 7.13E-02 ir: 1.83E-08 iu: 2.65E-02 rsn:   0
 37 2r: 3.24E-09 2x: 9.57E+05 2u: 7.13E-02 ir: 2.29E-09 iu: 2.65E-02 rsn:   0
 38 2r: 2.59E-08 2x: 9.57E+05 2u: 7.13E-02 ir: 1.83E-08 iu: 2.65E-02 rsn:   0
 39 2r: 3.24E-09 2x: 9.57E+05 2u: 7.13E-02 ir: 2.29E-09 iu: 2.65E-02 rsn:   0
 40 2r: 2.59E-08 2x: 9.57E+05 2u: 7.13E-02 ir: 1.83E-08 iu: 2.65E-02 rsn:   0
 41 2r: 3.24E-09 2x: 9.57E+05 2u: 7.13E-02 ir: 2.29E-09 iu: 2.65E-02 rsn:   0
 42 2r: 2.59E-08 2x: 9.57E+05 2u: 7.13E-02 ir: 1.83E-08 iu: 2.65E-02 rsn:   0
 43 2r: 3.24E-09 2x: 9.57E+05 2u: 7.13E-02 ir: 2.29E-09 iu: 2.65E-02 rsn:   0
 44 2r: 2.59E-08 2x: 9.57E+05 2u: 7.13E-02 ir: 1.83E-08 iu: 2.65E-02 rsn:   0
 45 2r: 3.24E-09 2x: 9.57E+05 2u: 7.13E-02 ir: 2.29E-09 iu: 2.65E-02 rsn:   0
 46 2r: 2.59E-08 2x: 9.57E+05 2u: 7.13E-02 ir: 1.83E-08 iu: 2.65E-02 rsn:   0
 47 2r: 3.24E-09 2x: 9.57E+05 2u: 7.13E-02 ir: 2.29E-09 iu: 2.65E-02 rsn:   0
 48 2r: 2.59E-08 2x: 9.57E+05 2u: 7.13E-02 ir: 1.83E-08 iu: 2.65E-02 rsn:   0
 49 2r: 3.24E-09 2x: 9.57E+05 2u: 7.13E-02 ir: 2.29E-09 iu: 2.65E-02 rsn:   0
 50 2r: 2.59E-08 2x: 9.57E+05 2u: 7.13E-02 ir: 1.83E-08 iu: 2.65E-02 rsn:   0
  0 2r: 2.51E-06 2x: 0.00E+00 2u: 0.00E+00 ir: 1.25E-06 iu: 0.00E+00 rsn:   0
  1 2r: 5.70E-08 2x: 9.57E+05 2u: 4.78E+02 ir: 3.72E-08 iu: 2.85E+02 rsn:   0
  2 2r: 1.60E-09 2x: 9.57E+05 2u: 9.24E+00 ir: 1.13E-09 iu: 6.27E+00 rsn:   0
  3 2r: 5.25E-12 2x: 9.57E+05 2u: 1.16E-02 ir: 3.71E-12 iu: 4.87E-03 rsn:   0
  4 2r: 5.69E-17 2x: 9.57E+05 2u: 3.33E-05 ir: 4.06E-17 iu: 1.25E-05 rsn: rtol
 Step     73 Time=  4.14583E+00 Dt=  2.08333E-02 [hour] snes_conv_reason:    3
  newton =  54 [     447] linear =    54 [       447] cuts =  1 [   3]
  --> max chng: dpmx=   2.7900E+02

== RICHARDS FLOW ===============================================================
  0 2r: 2.51E-06 2x: 0.00E+00 2u: 0.00E+00 ir: 1.27E-06 iu: 0.00E+00 rsn:   0
  1 2r: 5.25E-08 2x: 9.57E+05 2u: 4.80E+02 ir: 3.72E-08 iu: 2.92E+02 rsn:   0
  2 2r: 3.67E-11 2x: 9.57E+05 2u: 9.36E+00 ir: 3.32E-11 iu: 6.42E+00 rsn:   0
  3 2r: 2.30E-17 2x: 9.57E+05 2u: 6.02E-03 ir: 2.23E-17 iu: 4.39E-03 rsn: rtol
 Step     74 Time=  4.16667E+00 Dt=  2.08333E-02 [hour] snes_conv_reason:    3
  newton =   3 [     450] linear =     3 [       450] cuts =  0 [   3]
  --> max chng: dpmx=   2.8560E+02

== RICHARDS FLOW ===============================================================
  0 2r: 2.51E-06 2x: 0.00E+00 2u: 0.00E+00 ir: 1.28E-06 iu: 0.00E+00 rsn:   0
  1 2r: 5.25E-08 2x: 9.57E+05 2u: 4.81E+02 ir: 3.66E-08 iu: 2.95E+02 rsn:   0
  2 2r: 3.79E-11 2x: 9.57E+05 2u: 9.43E+00 ir: 3.00E-11 iu: 6.94E+00 rsn:   0
  3 2r: 2.07E-17 2x: 9.57E+05 2u: 6.53E-03 ir: 1.55E-17 iu: 4.77E-03 rsn: rtol
 Step     75 Time=  4.18750E+00 Dt=  2.08333E-02 [hour] snes_conv_reason:    3
  newton =   3 [     453] linear =     3 [       453] cuts =  0 [   3]
  --> max chng: dpmx=   2.8803E+02

== RICHARDS FLOW ===============================================================
  0 2r: 2.52E-06 2x: 0.00E+00 2u: 0.00E+00 ir: 1.28E-06 iu: 0.00E+00 rsn:   0
  1 2r: 5.29E-08 2x: 9.57E+05 2u: 4.83E+02 ir: 3.55E-08 iu: 2.94E+02 rsn:   0
  2 2r: 4.02E-11 2x: 9.57E+05 2u: 9.46E+00 ir: 2.77E-11 iu: 7.24E+00 rsn:   0
  3 2r: 2.81E-17 2x: 9.57E+05 2u: 6.90E-03 ir: 2.39E-17 iu: 5.67E-03 rsn: rtol
 Step     76 Time=  4.20833E+00 Dt=  2.08333E-02 [hour] snes_conv_reason:    3
  newton =   3 [     456] linear =     3 [       456] cuts =  0 [   3]
  --> max chng: dpmx=   2.8672E+02

== RICHARDS FLOW ===============================================================
  0 2r: 2.52E-06 2x: 0.00E+00 2u: 0.00E+00 ir: 1.27E-06 iu: 0.00E+00 rsn:   0
  1 2r: 5.32E-08 2x: 9.57E+05 2u: 4.84E+02 ir: 3.48E-08 iu: 2.90E+02 rsn:   0
  2 2r: 4.24E-11 2x: 9.57E+05 2u: 9.50E+00 ir: 3.40E-11 iu: 7.33E+00 rsn:   0
  3 2r: 3.82E-17 2x: 9.57E+05 2u: 6.94E-03 ir: 3.39E-17 iu: 6.14E-03 rsn: rtol
 Step     77 Time=  4.22917E+00 Dt=  2.08333E-02 [hour] snes_conv_reason:    3
  newton =   3 [     459] linear =     3 [       459] cuts =  0 [   3]
  --> max chng: dpmx=   2.8226E+02

== RICHARDS FLOW ===============================================================
  0 2r: 2.52E-06 2x: 0.00E+00 2u: 0.00E+00 ir: 1.26E-06 iu: 0.00E+00 rsn:   0
  1 2r: 5.34E-08 2x: 9.57E+05 2u: 4.86E+02 ir: 3.71E-08 iu: 2.83E+02 rsn:   0
  2 2r: 4.42E-11 2x: 9.57E+05 2u: 9.57E+00 ir: 3.79E-11 iu: 7.23E+00 rsn:   0
  3 2r: 5.65E-17 2x: 9.57E+05 2u: 6.68E-03 ir: 3.90E-17 iu: 6.20E-03 rsn: rtol
 Step     78 Time=  4.25000E+00 Dt=  2.08333E-02 [hour] snes_conv_reason:    3
  newton =   3 [     462] linear =     3 [       462] cuts =  0 [   3]
  --> max chng: dpmx=   2.7531E+02

== RICHARDS FLOW ===============================================================
  0 2r: 2.52E-06 2x: 0.00E+00 2u: 0.00E+00 ir: 1.25E-06 iu: 0.00E+00 rsn:   0
  1 2r: 5.37E-08 2x: 9.57E+05 2u: 4.87E+02 ir: 3.85E-08 iu: 2.84E+02 rsn:   0
  2 2r: 5.28E-11 2x: 9.57E+05 2u: 9.68E+00 ir: 3.93E-11 iu: 7.00E+00 rsn:   0
  3 2r: 4.84E-16 2x: 9.57E+05 2u: 6.37E-03 ir: 3.41E-16 iu: 5.94E-03 rsn: rtol
 Step     79 Time=  4.27083E+00 Dt=  2.08333E-02 [hour] snes_conv_reason:    3
  newton =   3 [     465] linear =     3 [       465] cuts =  0 [   3]
  --> max chng: dpmx=   2.7874E+02

== RICHARDS FLOW ===============================================================
  0 2r: 2.52E-06 2x: 0.00E+00 2u: 0.00E+00 ir: 1.27E-06 iu: 0.00E+00 rsn:   0
  1 2r: 1.67E-07 2x: 9.58E+05 2u: 1.01E+03 ir: 9.67E-08 iu: 6.26E+02 rsn:   0
  2 2r: 2.43E-07 2x: 9.58E+05 2u: 4.15E+01 ir: 1.72E-07 iu: 2.72E+01 rsn:   0
  3 2r: 8.73E-08 2x: 9.58E+05 2u: 2.54E+00 ir: 6.18E-08 iu: 9.23E-01 rsn:   0
  4 2r: 3.05E-08 2x: 9.58E+05 2u: 2.39E-01 ir: 2.16E-08 iu: 8.67E-02 rsn:   0
  5 2r: 2.38E-09 2x: 9.58E+05 2u: 1.64E-01 ir: 1.68E-09 iu: 5.98E-02 rsn:   0
  6 2r: 1.27E-11 2x: 9.58E+05 2u: 1.49E-02 ir: 8.95E-12 iu: 5.44E-03 rsn:   0
  7 2r: 3.97E-16 2x: 9.58E+05 2u: 8.02E-05 ir: 2.81E-16 iu: 2.92E-05 rsn: rtol
 Step     80 Time=  4.31250E+00 Dt=  4.16667E-02 [hour] snes_conv_reason:    3
  newton =   7 [     472] linear =     7 [       472] cuts =  0 [   3]
  --> max chng: dpmx=   5.9934E+02

== RICHARDS FLOW ===============================================================
  0 2r: 2.52E-06 2x: 0.00E+00 2u: 0.00E+00 ir: 1.29E-06 iu: 0.00E+00 rsn:   0
  1 2r: 4.76E-08 2x: 9.58E+05 2u: 3.17E+02 ir: 2.45E-08 iu: 1.96E+02 rsn:   0
  2 2r: 1.23E-07 2x: 9.58E+05 2u: 4.28E+00 ir: 8.67E-08 iu: 3.07E+00 rsn:   0
  3 2r: 3.99E-08 2x: 9.58E+05 2u: 9.08E-01 ir: 2.82E-08 iu: 3.33E-01 rsn:   0
  4 2r: 1.23E-07 2x: 9.58E+05 2u: 9.08E-01 ir: 8.67E-08 iu: 3.33E-01 rsn:   0
  5 2r: 3.99E-08 2x: 9.58E+05 2u: 9.08E-01 ir: 2.82E-08 iu: 3.33E-01 rsn:   0
  6 2r: 1.23E-07 2x: 9.58E+05 2u: 9.08E-01 ir: 8.67E-08 iu: 3.33E-01 rsn:   0
  7 2r: 3.99E-08 2x: 9.58E+05 2u: 9.08E-01 ir: 2.82E-08 iu: 3.33E-01 rsn:   0
  8 2r: 1.23E-07 2x: 9.58E+05 2u: 9.08E-01 ir: 8.67E-08 iu: 3.33E-01 rsn:   0
  9 2r: 3.99E-08 2x: 9.58E+05 2u: 9.08E-01 ir: 2.82E-08 iu: 3.33E-01 rsn:   0
 10 2r: 1.23E-07 2x: 9.58E+05 2u: 9.08E-01 ir: 8.67E-08 iu: 3.33E-01 rsn:   0
 11 2r: 3.99E-08 2x: 9.58E+05 2u: 9.08E-01 ir: 2.82E-08 iu: 3.33E-01 rsn:   0
 12 2r: 1.23E-07 2x: 9.58E+05 2u: 9.08E-01 ir: 8.67E-08 iu: 3.33E-01 rsn:   0
 13 2r: 3.99E-08 2x: 9.58E+05 2u: 9.08E-01 ir: 2.82E-08 iu: 3.33E-01 rsn:   0
 14 2r: 1.23E-07 2x: 9.58E+05 2u: 9.08E-01 ir: 8.67E-08 iu: 3.33E-01 rsn:   0
 15 2r: 3.99E-08 2x: 9.58E+05 2u: 9.08E-01 ir: 2.82E-08 iu: 3.33E-01 rsn:   0
 16 2r: 1.23E-07 2x: 9.58E+05 2u: 9.08E-01 ir: 8.67E-08 iu: 3.33E-01 rsn:   0
 17 2r: 3.99E-08 2x: 9.58E+05 2u: 9.08E-01 ir: 2.82E-08 iu: 3.33E-01 rsn:   0
 18 2r: 1.23E-07 2x: 9.58E+05 2u: 9.08E-01 ir: 8.67E-08 iu: 3.33E-01 rsn:   0
 19 2r: 3.99E-08 2x: 9.58E+05 2u: 9.08E-01 ir: 2.82E-08 iu: 3.33E-01 rsn:   0
 20 2r: 1.23E-07 2x: 9.58E+05 2u: 9.08E-01 ir: 8.67E-08 iu: 3.33E-01 rsn:   0
 21 2r: 3.99E-08 2x: 9.58E+05 2u: 9.08E-01 ir: 2.82E-08 iu: 3.33E-01 rsn:   0
 22 2r: 1.23E-07 2x: 9.58E+05 2u: 9.08E-01 ir: 8.67E-08 iu: 3.33E-01 rsn:   0
 23 2r: 3.99E-08 2x: 9.58E+05 2u: 9.08E-01 ir: 2.82E-08 iu: 3.33E-01 rsn:   0
 24 2r: 1.23E-07 2x: 9.58E+05 2u: 9.08E-01 ir: 8.67E-08 iu: 3.33E-01 rsn:   0
 25 2r: 3.99E-08 2x: 9.58E+05 2u: 9.08E-01 ir: 2.82E-08 iu: 3.33E-01 rsn:   0
 26 2r: 1.23E-07 2x: 9.58E+05 2u: 9.08E-01 ir: 8.67E-08 iu: 3.33E-01 rsn:   0
 27 2r: 3.99E-08 2x: 9.58E+05 2u: 9.08E-01 ir: 2.82E-08 iu: 3.33E-01 rsn:   0
 28 2r: 1.23E-07 2x: 9.58E+05 2u: 9.08E-01 ir: 8.67E-08 iu: 3.33E-01 rsn:   0
 29 2r: 3.99E-08 2x: 9.58E+05 2u: 9.08E-01 ir: 2.82E-08 iu: 3.33E-01 rsn:   0
 30 2r: 1.23E-07 2x: 9.58E+05 2u: 9.08E-01 ir: 8.67E-08 iu: 3.33E-01 rsn:   0
 31 2r: 3.99E-08 2x: 9.58E+05 2u: 9.08E-01 ir: 2.82E-08 iu: 3.33E-01 rsn:   0
 32 2r: 1.23E-07 2x: 9.58E+05 2u: 9.08E-01 ir: 8.67E-08 iu: 3.33E-01 rsn:   0
 33 2r: 3.99E-08 2x: 9.58E+05 2u: 9.08E-01 ir: 2.82E-08 iu: 3.33E-01 rsn:   0
 34 2r: 1.23E-07 2x: 9.58E+05 2u: 9.08E-01 ir: 8.67E-08 iu: 3.33E-01 rsn:   0
 35 2r: 3.99E-08 2x: 9.58E+05 2u: 9.08E-01 ir: 2.82E-08 iu: 3.33E-01 rsn:   0
 36 2r: 1.23E-07 2x: 9.58E+05 2u: 9.08E-01 ir: 8.67E-08 iu: 3.33E-01 rsn:   0
 37 2r: 3.99E-08 2x: 9.58E+05 2u: 9.08E-01 ir: 2.82E-08 iu: 3.33E-01 rsn:   0
 38 2r: 1.23E-07 2x: 9.58E+05 2u: 9.08E-01 ir: 8.67E-08 iu: 3.33E-01 rsn:   0
 39 2r: 3.99E-08 2x: 9.58E+05 2u: 9.08E-01 ir: 2.82E-08 iu: 3.33E-01 rsn:   0
 40 2r: 1.23E-07 2x: 9.58E+05 2u: 9.08E-01 ir: 8.67E-08 iu: 3.33E-01 rsn:   0
 41 2r: 3.99E-08 2x: 9.58E+05 2u: 9.08E-01 ir: 2.82E-08 iu: 3.33E-01 rsn:   0
 42 2r: 1.23E-07 2x: 9.58E+05 2u: 9.08E-01 ir: 8.67E-08 iu: 3.33E-01 rsn:   0
 43 2r: 3.99E-08 2x: 9.58E+05 2u: 9.08E-01 ir: 2.82E-08 iu: 3.33E-01 rsn:   0
 44 2r: 1.23E-07 2x: 9.58E+05 2u: 9.08E-01 ir: 8.67E-08 iu: 3.33E-01 rsn:   0
 45 2r: 3.99E-08 2x: 9.58E+05 2u: 9.08E-01 ir: 2.82E-08 iu: 3.33E-01 rsn:   0
 46 2r: 1.23E-07 2x: 9.58E+05 2u: 9.08E-01 ir: 8.67E-08 iu: 3.33E-01 rsn:   0
 47 2r: 3.99E-08 2x: 9.58E+05 2u: 9.08E-01 ir: 2.82E-08 iu: 3.33E-01 rsn:   0
 48 2r: 1.23E-07 2x: 9.58E+05 2u: 9.08E-01 ir: 8.67E-08 iu: 3.33E-01 rsn:   0
 49 2r: 3.99E-08 2x: 9.58E+05 2u: 9.08E-01 ir: 2.82E-08 iu: 3.33E-01 rsn:   0
 50 2r: 1.23E-07 2x: 9.58E+05 2u: 9.08E-01 ir: 8.67E-08 iu: 3.33E-01 rsn:   0
  0 2r: 2.52E-06 2x: 0.00E+00 2u: 0.00E+00 ir: 1.29E-06 iu: 0.00E+00 rsn:   0
  1 2r: 1.66E-08 2x: 9.58E+05 2u: 1.57E+02 ir: 1.08E-08 iu: 9.62E+01 rsn:   0
  2 2r: 1.22E-10 2x: 9.58E+05 2u: 1.04E+00 ir: 8.65E-11 iu: 7.53E-01 rsn:   0
  3 2r: 5.83E-14 2x: 9.58E+05 2u: 6.09E-04 ir: 4.12E-14 iu: 2.23E-04 rsn: stol
 Step     81 Time=  4.31937E+00 Dt=  6.87500E-03 [hour] snes_conv_reason:    4
  newton =  53 [     525] linear =    53 [       525] cuts =  1 [   4]
  --> max chng: dpmx=   9.5472E+01

== RICHARDS FLOW ===============================================================
  0 2r: 2.52E-06 2x: 0.00E+00 2u: 0.00E+00 ir: 1.29E-06 iu: 0.00E+00 rsn:   0
  1 2r: 2.08E-08 2x: 9.58E+05 2u: 1.57E+02 ir: 1.07E-08 iu: 9.66E+01 rsn:   0
  2 2r: 2.29E-09 2x: 9.58E+05 2u: 1.04E+00 ir: 1.62E-09 iu: 7.69E-01 rsn:   0
  3 2r: 5.44E-11 2x: 9.58E+05 2u: 6.65E-03 ir: 3.85E-11 iu: 2.45E-03 rsn: stol
 Step     82 Time=  4.32625E+00 Dt=  6.87500E-03 [hour] snes_conv_reason:    4
  newton =   3 [     528] linear =     3 [       528] cuts =  0 [   4]
  --> max chng: dpmx=   9.5871E+01

== RICHARDS FLOW ===============================================================
  0 2r: 2.52E-06 2x: 0.00E+00 2u: 0.00E+00 ir: 1.29E-06 iu: 0.00E+00 rsn:   0
  1 2r: 1.73E-08 2x: 9.58E+05 2u: 1.62E+02 ir: 1.09E-08 iu: 9.99E+01 rsn:   0
  2 2r: 1.10E-12 2x: 9.58E+05 2u: 1.12E+00 ir: 7.82E-13 iu: 8.31E-01 rsn:   0
  3 2r: 4.03E-18 2x: 9.58E+05 2u: 7.63E-05 ir: 1.73E-18 iu: 6.25E-05 rsn: rtol
 Step     83 Time=  4.33333E+00 Dt=  7.08333E-03 [hour] snes_conv_reason:    3
  newton =   3 [     531] linear =     3 [       531] cuts =  0 [   4]
  --> max chng: dpmx=   9.9046E+01

== RICHARDS FLOW ===============================================================
  0 2r: 2.52E-06 2x: 0.00E+00 2u: 0.00E+00 ir: 1.29E-06 iu: 0.00E+00 rsn:   0
  1 2r: 1.59E-08 2x: 9.58E+05 2u: 1.57E+02 ir: 1.04E-08 iu: 9.70E+01 rsn:   0
  2 2r: 1.01E-12 2x: 9.58E+05 2u: 1.05E+00 ir: 7.24E-13 iu: 7.94E-01 rsn:   0
  3 2r: 3.32E-18 2x: 9.58E+05 2u: 6.85E-05 ir: 1.25E-18 iu: 5.80E-05 rsn: rtol
 Step     84 Time=  4.34021E+00 Dt=  6.87500E-03 [hour] snes_conv_reason:    3
  newton =   3 [     534] linear =     3 [       534] cuts =  0 [   4]
  --> max chng: dpmx=   9.6184E+01

== RICHARDS FLOW ===============================================================
  0 2r: 2.52E-06 2x: 0.00E+00 2u: 0.00E+00 ir: 1.29E-06 iu: 0.00E+00 rsn:   0
  1 2r: 1.59E-08 2x: 9.58E+05 2u: 1.57E+02 ir: 1.03E-08 iu: 9.69E+01 rsn:   0
  2 2r: 1.02E-12 2x: 9.58E+05 2u: 1.05E+00 ir: 7.72E-13 iu: 8.02E-01 rsn:   0
  3 2r: 4.69E-18 2x: 9.58E+05 2u: 6.93E-05 ir: 2.49E-18 iu: 6.02E-05 rsn: rtol
 Step     85 Time=  4.34708E+00 Dt=  6.87500E-03 [hour] snes_conv_reason:    3
  newton =   3 [     537] linear =     3 [       537] cuts =  0 [   4]
  --> max chng: dpmx=   9.6110E+01

== RICHARDS FLOW ===============================================================
  0 2r: 2.52E-06 2x: 0.00E+00 2u: 0.00E+00 ir: 1.29E-06 iu: 0.00E+00 rsn:   0
  1 2r: 1.59E-08 2x: 9.58E+05 2u: 1.58E+02 ir: 1.02E-08 iu: 9.67E+01 rsn:   0
  2 2r: 1.03E-12 2x: 9.58E+05 2u: 1.05E+00 ir: 8.15E-13 iu: 8.07E-01 rsn:   0
  3 2r: 4.63E-18 2x: 9.58E+05 2u: 6.99E-05 ir: 2.33E-18 iu: 6.20E-05 rsn: rtol
 Step     86 Time=  4.35396E+00 Dt=  6.87500E-03 [hour] snes_conv_reason:    3
  newton =   3 [     540] linear =     3 [       540] cuts =  0 [   4]
  --> max chng: dpmx=   9.5898E+01

== RICHARDS FLOW ===============================================================
  0 2r: 2.53E-06 2x: 0.00E+00 2u: 0.00E+00 ir: 1.28E-06 iu: 0.00E+00 rsn:   0
  1 2r: 3.38E-08 2x: 9.58E+05 2u: 3.20E+02 ir: 2.22E-08 iu: 1.95E+02 rsn:   0
  2 2r: 1.04E-11 2x: 9.58E+05 2u: 4.25E+00 ir: 8.49E-12 iu: 3.30E+00 rsn:   0
  3 2r: 4.79E-18 2x: 9.58E+05 2u: 1.28E-03 ir: 1.87E-18 iu: 1.15E-03 rsn: rtol
 Step     87 Time=  4.36771E+00 Dt=  1.37500E-02 [hour] snes_conv_reason:    3
  newton =   3 [     543] linear =     3 [       543] cuts =  0 [   4]
  --> max chng: dpmx=   1.9161E+02

== RICHARDS FLOW ===============================================================
  0 2r: 2.53E-06 2x: 0.00E+00 2u: 0.00E+00 ir: 1.28E-06 iu: 0.00E+00 rsn:   0
  1 2r: 7.67E-08 2x: 9.58E+05 2u: 6.57E+02 ir: 5.34E-08 iu: 3.90E+02 rsn:   0
  2 2r: 1.32E-10 2x: 9.58E+05 2u: 1.75E+01 ir: 1.13E-10 iu: 1.36E+01 rsn:   0
  3 2r: 5.37E-16 2x: 9.58E+05 2u: 2.54E-02 ir: 4.77E-16 iu: 2.30E-02 rsn: rtol
 Step     88 Time=  4.39521E+00 Dt=  2.75000E-02 [hour] snes_conv_reason:    3
  newton =   3 [     546] linear =     3 [       546] cuts =  0 [   4]
  --> max chng: dpmx=   3.7667E+02

== RICHARDS FLOW ===============================================================
  0 2r: 2.53E-06 2x: 0.00E+00 2u: 0.00E+00 ir: 1.26E-06 iu: 0.00E+00 rsn:   0
  1 2r: 5.67E-08 2x: 9.58E+05 2u: 5.08E+02 ir: 4.11E-08 iu: 2.95E+02 rsn:   0
  2 2r: 5.19E-11 2x: 9.58E+05 2u: 1.06E+01 ir: 4.71E-11 iu: 7.79E+00 rsn:   0
  3 2r: 8.02E-17 2x: 9.58E+05 2u: 7.83E-03 ir: 5.77E-17 iu: 7.38E-03 rsn: rtol
 Step     89 Time=  4.41667E+00 Dt=  2.14583E-02 [hour] snes_conv_reason:    3
  newton =   3 [     549] linear =     3 [       549] cuts =  0 [   4]
  --> max chng: dpmx=   2.8929E+02

== RICHARDS FLOW ===============================================================
  0 2r: 2.53E-06 2x: 0.00E+00 2u: 0.00E+00 ir: 1.28E-06 iu: 0.00E+00 rsn:   0
  1 2r: 2.14E-07 2x: 9.59E+05 2u: 1.37E+03 ir: 1.50E-07 iu: 8.62E+02 rsn:   0
  2 2r: 2.21E-08 2x: 9.59E+05 2u: 7.67E+01 ir: 1.55E-08 iu: 4.99E+01 rsn:   0
  3 2r: 7.48E-10 2x: 9.59E+05 2u: 5.64E-01 ir: 5.29E-10 iu: 3.78E-01 rsn:   0
  4 2r: 8.01E-13 2x: 9.59E+05 2u: 5.72E-03 ir: 5.66E-13 iu: 2.03E-03 rsn: stol
 Step     90 Time=  4.47167E+00 Dt=  5.50000E-02 [hour] snes_conv_reason:    4
  newton =   4 [     553] linear =     4 [       553] cuts =  0 [   4]
  --> max chng: dpmx=   8.1185E+02

== RICHARDS FLOW ===============================================================
  0 2r: 2.52E-06 2x: 0.00E+00 2u: 0.00E+00 ir: 1.30E-06 iu: 0.00E+00 rsn:   0
  1 2r: 8.09E-08 2x: 9.59E+05 2u: 6.72E+02 ir: 5.57E-08 iu: 4.19E+02 rsn:   0
  2 2r: 3.91E-08 2x: 9.59E+05 2u: 1.85E+01 ir: 2.76E-08 iu: 1.41E+01 rsn:   0
  3 2r: 6.40E-09 2x: 9.59E+05 2u: 1.52E-01 ir: 4.53E-09 iu: 5.34E-02 rsn:   0
  4 2r: 3.91E-08 2x: 9.59E+05 2u: 1.49E-01 ir: 2.76E-08 iu: 5.34E-02 rsn:   0
  5 2r: 6.40E-09 2x: 9.59E+05 2u: 1.49E-01 ir: 4.53E-09 iu: 5.34E-02 rsn:   0
  6 2r: 3.91E-08 2x: 9.59E+05 2u: 1.49E-01 ir: 2.76E-08 iu: 5.34E-02 rsn:   0
  7 2r: 6.40E-09 2x: 9.59E+05 2u: 1.49E-01 ir: 4.53E-09 iu: 5.34E-02 rsn:   0
  8 2r: 3.91E-08 2x: 9.59E+05 2u: 1.49E-01 ir: 2.76E-08 iu: 5.34E-02 rsn:   0
  9 2r: 6.40E-09 2x: 9.59E+05 2u: 1.49E-01 ir: 4.53E-09 iu: 5.34E-02 rsn:   0
 10 2r: 3.91E-08 2x: 9.59E+05 2u: 1.49E-01 ir: 2.76E-08 iu: 5.34E-02 rsn:   0
 11 2r: 6.40E-09 2x: 9.59E+05 2u: 1.49E-01 ir: 4.53E-09 iu: 5.34E-02 rsn:   0
 12 2r: 3.91E-08 2x: 9.59E+05 2u: 1.49E-01 ir: 2.76E-08 iu: 5.34E-02 rsn:   0
 13 2r: 6.40E-09 2x: 9.59E+05 2u: 1.49E-01 ir: 4.53E-09 iu: 5.34E-02 rsn:   0
 14 2r: 3.91E-08 2x: 9.59E+05 2u: 1.49E-01 ir: 2.76E-08 iu: 5.34E-02 rsn:   0
 15 2r: 6.40E-09 2x: 9.59E+05 2u: 1.49E-01 ir: 4.53E-09 iu: 5.34E-02 rsn:   0
 16 2r: 3.91E-08 2x: 9.59E+05 2u: 1.49E-01 ir: 2.76E-08 iu: 5.34E-02 rsn:   0
 17 2r: 6.40E-09 2x: 9.59E+05 2u: 1.49E-01 ir: 4.53E-09 iu: 5.34E-02 rsn:   0
 18 2r: 3.91E-08 2x: 9.59E+05 2u: 1.49E-01 ir: 2.76E-08 iu: 5.34E-02 rsn:   0
 19 2r: 6.40E-09 2x: 9.59E+05 2u: 1.49E-01 ir: 4.53E-09 iu: 5.34E-02 rsn:   0
 20 2r: 3.91E-08 2x: 9.59E+05 2u: 1.49E-01 ir: 2.76E-08 iu: 5.34E-02 rsn:   0
 21 2r: 6.40E-09 2x: 9.59E+05 2u: 1.49E-01 ir: 4.53E-09 iu: 5.34E-02 rsn:   0
 22 2r: 3.91E-08 2x: 9.59E+05 2u: 1.49E-01 ir: 2.76E-08 iu: 5.34E-02 rsn:   0
 23 2r: 6.40E-09 2x: 9.59E+05 2u: 1.49E-01 ir: 4.53E-09 iu: 5.34E-02 rsn:   0
 24 2r: 3.91E-08 2x: 9.59E+05 2u: 1.49E-01 ir: 2.76E-08 iu: 5.34E-02 rsn:   0
 25 2r: 6.40E-09 2x: 9.59E+05 2u: 1.49E-01 ir: 4.53E-09 iu: 5.34E-02 rsn:   0
 26 2r: 3.91E-08 2x: 9.59E+05 2u: 1.49E-01 ir: 2.76E-08 iu: 5.34E-02 rsn:   0
 27 2r: 6.40E-09 2x: 9.59E+05 2u: 1.49E-01 ir: 4.53E-09 iu: 5.34E-02 rsn:   0
 28 2r: 3.91E-08 2x: 9.59E+05 2u: 1.49E-01 ir: 2.76E-08 iu: 5.34E-02 rsn:   0
[...]
 27 2r: 6.06E-08 2x: 1.02E+06 2u: 2.95E+00 ir: 4.29E-08 iu: 5.60E-01 rsn:   0
 28 2r: 1.64E-07 2x: 1.02E+06 2u: 2.95E+00 ir: 1.16E-07 iu: 5.60E-01 rsn:   0
 29 2r: 6.06E-08 2x: 1.02E+06 2u: 2.95E+00 ir: 4.29E-08 iu: 5.60E-01 rsn:   0
 30 2r: 1.64E-07 2x: 1.02E+06 2u: 2.95E+00 ir: 1.16E-07 iu: 5.60E-01 rsn:   0
 31 2r: 6.06E-08 2x: 1.02E+06 2u: 2.95E+00 ir: 4.29E-08 iu: 5.60E-01 rsn:   0
 32 2r: 1.64E-07 2x: 1.02E+06 2u: 2.95E+00 ir: 1.16E-07 iu: 5.60E-01 rsn:   0
 33 2r: 6.06E-08 2x: 1.02E+06 2u: 2.95E+00 ir: 4.29E-08 iu: 5.60E-01 rsn:   0
 34 2r: 1.64E-07 2x: 1.02E+06 2u: 2.95E+00 ir: 1.16E-07 iu: 5.60E-01 rsn:   0
 35 2r: 6.06E-08 2x: 1.02E+06 2u: 2.95E+00 ir: 4.29E-08 iu: 5.60E-01 rsn:   0
 36 2r: 1.64E-07 2x: 1.02E+06 2u: 2.95E+00 ir: 1.16E-07 iu: 5.60E-01 rsn:   0
 37 2r: 6.06E-08 2x: 1.02E+06 2u: 2.95E+00 ir: 4.29E-08 iu: 5.60E-01 rsn:   0
 38 2r: 1.64E-07 2x: 1.02E+06 2u: 2.95E+00 ir: 1.16E-07 iu: 5.60E-01 rsn:   0
 39 2r: 6.06E-08 2x: 1.02E+06 2u: 2.95E+00 ir: 4.29E-08 iu: 5.60E-01 rsn:   0
 40 2r: 1.64E-07 2x: 1.02E+06 2u: 2.95E+00 ir: 1.16E-07 iu: 5.60E-01 rsn:   0
 41 2r: 6.06E-08 2x: 1.02E+06 2u: 2.95E+00 ir: 4.29E-08 iu: 5.60E-01 rsn:   0
 42 2r: 1.64E-07 2x: 1.02E+06 2u: 2.95E+00 ir: 1.16E-07 iu: 5.60E-01 rsn:   0
 43 2r: 6.06E-08 2x: 1.02E+06 2u: 2.95E+00 ir: 4.29E-08 iu: 5.60E-01 rsn:   0
 44 2r: 1.64E-07 2x: 1.02E+06 2u: 2.95E+00 ir: 1.16E-07 iu: 5.60E-01 rsn:   0
 45 2r: 6.06E-08 2x: 1.02E+06 2u: 2.95E+00 ir: 4.29E-08 iu: 5.60E-01 rsn:   0
 46 2r: 1.64E-07 2x: 1.02E+06 2u: 2.95E+00 ir: 1.16E-07 iu: 5.60E-01 rsn:   0
 47 2r: 6.06E-08 2x: 1.02E+06 2u: 2.95E+00 ir: 4.29E-08 iu: 5.60E-01 rsn:   0
 48 2r: 1.64E-07 2x: 1.02E+06 2u: 2.95E+00 ir: 1.16E-07 iu: 5.60E-01 rsn:   0
 49 2r: 6.06E-08 2x: 1.02E+06 2u: 2.95E+00 ir: 4.29E-08 iu: 5.60E-01 rsn:   0
 50 2r: 1.64E-07 2x: 1.02E+06 2u: 2.95E+00 ir: 1.16E-07 iu: 5.60E-01 rsn:   0
  0 2r: 2.96E-06 2x: 0.00E+00 2u: 0.00E+00 ir: 1.97E-06 iu: 0.00E+00 rsn:   0
  1 2r: 1.62E-07 2x: 1.02E+06 2u: 6.54E+02 ir: 1.54E-07 iu: 4.46E+02 rsn:   0
  2 2r: 1.30E-09 2x: 1.02E+06 2u: 2.00E+01 ir: 7.67E-10 iu: 1.81E+01 rsn:   0
  3 2r: 1.23E-12 2x: 1.02E+06 2u: 4.61E-02 ir: 8.71E-13 iu: 3.94E-02 rsn:   0
  4 2r: 7.80E-18 2x: 1.02E+06 2u: 2.17E-05 ir: 3.24E-18 iu: 4.12E-06 rsn: rtol
 Step    472 Time=  1.41250E+01 Dt=  4.16667E-02 [hour] snes_conv_reason:    3
  newton =  54 [    6079] linear =    54 [      6079] cuts =  1 [  90]
  --> max chng: dpmx=   4.2772E+02

== RICHARDS FLOW ===============================================================
  0 2r: 2.95E-06 2x: 0.00E+00 2u: 0.00E+00 ir: 1.95E-06 iu: 0.00E+00 rsn:   0
  1 2r: 1.56E-07 2x: 1.02E+06 2u: 6.27E+02 ir: 1.38E-07 iu: 4.10E+02 rsn:   0
  2 2r: 1.63E-07 2x: 1.02E+06 2u: 1.53E+01 ir: 1.15E-07 iu: 1.25E+01 rsn:   0
  3 2r: 6.00E-08 2x: 1.02E+06 2u: 2.92E+00 ir: 4.24E-08 iu: 5.54E-01 rsn:   0
  4 2r: 1.63E-07 2x: 1.02E+06 2u: 2.92E+00 ir: 1.15E-07 iu: 5.55E-01 rsn:   0
  5 2r: 6.00E-08 2x: 1.02E+06 2u: 2.92E+00 ir: 4.24E-08 iu: 5.55E-01 rsn:   0
  6 2r: 1.63E-07 2x: 1.02E+06 2u: 2.92E+00 ir: 1.15E-07 iu: 5.55E-01 rsn:   0
  7 2r: 6.00E-08 2x: 1.02E+06 2u: 2.92E+00 ir: 4.24E-08 iu: 5.55E-01 rsn:   0
  8 2r: 1.63E-07 2x: 1.02E+06 2u: 2.92E+00 ir: 1.15E-07 iu: 5.55E-01 rsn:   0
  9 2r: 6.00E-08 2x: 1.02E+06 2u: 2.92E+00 ir: 4.24E-08 iu: 5.55E-01 rsn:   0
 10 2r: 1.63E-07 2x: 1.02E+06 2u: 2.92E+00 ir: 1.15E-07 iu: 5.55E-01 rsn:   0
 11 2r: 6.00E-08 2x: 1.02E+06 2u: 2.92E+00 ir: 4.24E-08 iu: 5.55E-01 rsn:   0
 12 2r: 1.63E-07 2x: 1.02E+06 2u: 2.92E+00 ir: 1.15E-07 iu: 5.55E-01 rsn:   0
 13 2r: 6.00E-08 2x: 1.02E+06 2u: 2.92E+00 ir: 4.24E-08 iu: 5.55E-01 rsn:   0
 14 2r: 1.63E-07 2x: 1.02E+06 2u: 2.92E+00 ir: 1.15E-07 iu: 5.55E-01 rsn:   0
 15 2r: 6.00E-08 2x: 1.02E+06 2u: 2.92E+00 ir: 4.24E-08 iu: 5.55E-01 rsn:   0
 16 2r: 1.63E-07 2x: 1.02E+06 2u: 2.92E+00 ir: 1.15E-07 iu: 5.55E-01 rsn:   0
 17 2r: 6.00E-08 2x: 1.02E+06 2u: 2.92E+00 ir: 4.24E-08 iu: 5.55E-01 rsn:   0
 18 2r: 1.63E-07 2x: 1.02E+06 2u: 2.92E+00 ir: 1.15E-07 iu: 5.55E-01 rsn:   0
 19 2r: 6.00E-08 2x: 1.02E+06 2u: 2.92E+00 ir: 4.24E-08 iu: 5.55E-01 rsn:   0
 20 2r: 1.63E-07 2x: 1.02E+06 2u: 2.92E+00 ir: 1.15E-07 iu: 5.55E-01 rsn:   0
 21 2r: 6.00E-08 2x: 1.02E+06 2u: 2.92E+00 ir: 4.24E-08 iu: 5.55E-01 rsn:   0
 22 2r: 1.63E-07 2x: 1.02E+06 2u: 2.92E+00 ir: 1.15E-07 iu: 5.55E-01 rsn:   0
 23 2r: 6.00E-08 2x: 1.02E+06 2u: 2.92E+00 ir: 4.24E-08 iu: 5.55E-01 rsn:   0
 24 2r: 1.63E-07 2x: 1.02E+06 2u: 2.92E+00 ir: 1.15E-07 iu: 5.55E-01 rsn:   0
 25 2r: 6.00E-08 2x: 1.02E+06 2u: 2.92E+00 ir: 4.24E-08 iu: 5.55E-01 rsn:   0
 26 2r: 1.63E-07 2x: 1.02E+06 2u: 2.92E+00 ir: 1.15E-07 iu: 5.55E-01 rsn:   0
 27 2r: 6.00E-08 2x: 1.02E+06 2u: 2.92E+00 ir: 4.24E-08 iu: 5.55E-01 rsn:   0
 28 2r: 1.63E-07 2x: 1.02E+06 2u: 2.92E+00 ir: 1.15E-07 iu: 5.55E-01 rsn:   0
 29 2r: 6.00E-08 2x: 1.02E+06 2u: 2.92E+00 ir: 4.24E-08 iu: 5.55E-01 rsn:   0
 30 2r: 1.63E-07 2x: 1.02E+06 2u: 2.92E+00 ir: 1.15E-07 iu: 5.55E-01 rsn:   0
 31 2r: 6.00E-08 2x: 1.02E+06 2u: 2.92E+00 ir: 4.24E-08 iu: 5.55E-01 rsn:   0
 32 2r: 1.63E-07 2x: 1.02E+06 2u: 2.92E+00 ir: 1.15E-07 iu: 5.55E-01 rsn:   0
 33 2r: 6.00E-08 2x: 1.02E+06 2u: 2.92E+00 ir: 4.24E-08 iu: 5.55E-01 rsn:   0
 34 2r: 1.63E-07 2x: 1.02E+06 2u: 2.92E+00 ir: 1.15E-07 iu: 5.55E-01 rsn:   0
 35 2r: 6.00E-08 2x: 1.02E+06 2u: 2.92E+00 ir: 4.24E-08 iu: 5.55E-01 rsn:   0
 36 2r: 1.63E-07 2x: 1.02E+06 2u: 2.92E+00 ir: 1.15E-07 iu: 5.55E-01 rsn:   0
 37 2r: 6.00E-08 2x: 1.02E+06 2u: 2.92E+00 ir: 4.24E-08 iu: 5.55E-01 rsn:   0
 38 2r: 1.63E-07 2x: 1.02E+06 2u: 2.92E+00 ir: 1.15E-07 iu: 5.55E-01 rsn:   0
 39 2r: 6.00E-08 2x: 1.02E+06 2u: 2.92E+00 ir: 4.24E-08 iu: 5.55E-01 rsn:   0
 40 2r: 1.63E-07 2x: 1.02E+06 2u: 2.92E+00 ir: 1.15E-07 iu: 5.55E-01 rsn:   0
 41 2r: 6.00E-08 2x: 1.02E+06 2u: 2.92E+00 ir: 4.24E-08 iu: 5.55E-01 rsn:   0
 42 2r: 1.63E-07 2x: 1.02E+06 2u: 2.92E+00 ir: 1.15E-07 iu: 5.55E-01 rsn:   0
 43 2r: 6.00E-08 2x: 1.02E+06 2u: 2.92E+00 ir: 4.24E-08 iu: 5.55E-01 rsn:   0
 44 2r: 1.63E-07 2x: 1.02E+06 2u: 2.92E+00 ir: 1.15E-07 iu: 5.55E-01 rsn:   0
 45 2r: 6.00E-08 2x: 1.02E+06 2u: 2.92E+00 ir: 4.24E-08 iu: 5.55E-01 rsn:   0
 46 2r: 1.63E-07 2x: 1.02E+06 2u: 2.92E+00 ir: 1.15E-07 iu: 5.55E-01 rsn:   0
 47 2r: 6.00E-08 2x: 1.02E+06 2u: 2.92E+00 ir: 4.24E-08 iu: 5.55E-01 rsn:   0
 48 2r: 1.63E-07 2x: 1.02E+06 2u: 2.92E+00 ir: 1.15E-07 iu: 5.55E-01 rsn:   0
 49 2r: 6.00E-08 2x: 1.02E+06 2u: 2.92E+00 ir: 4.24E-08 iu: 5.55E-01 rsn:   0
 50 2r: 1.63E-07 2x: 1.02E+06 2u: 2.92E+00 ir: 1.15E-07 iu: 5.55E-01 rsn:   0
  0 2r: 2.95E-06 2x: 0.00E+00 2u: 0.00E+00 ir: 1.95E-06 iu: 0.00E+00 rsn:   0
  1 2r: 4.83E-08 2x: 1.02E+06 2u: 3.14E+02 ir: 4.36E-08 iu: 2.06E+02 rsn:   0
  2 2r: 3.56E-10 2x: 1.02E+06 2u: 3.46E+00 ir: 2.53E-10 iu: 2.99E+00 rsn:   0
  3 2r: 2.50E-13 2x: 1.02E+06 2u: 5.13E-03 ir: 1.77E-13 iu: 9.58E-04 rsn: stol
 Step    473 Time=  1.41458E+01 Dt=  2.08333E-02 [hour] snes_conv_reason:    4
  newton =  53 [    6132] linear =    53 [      6132] cuts =  1 [  91]
  --> max chng: dpmx=   2.0285E+02

== RICHARDS FLOW ===============================================================
  0 2r: 2.94E-06 2x: 0.00E+00 2u: 0.00E+00 ir: 1.92E-06 iu: 0.00E+00 rsn:   0
  1 2r: 5.16E-08 2x: 1.02E+06 2u: 3.10E+02 ir: 3.66E-08 iu: 1.98E+02 rsn:   0
  2 2r: 1.06E-08 2x: 1.02E+06 2u: 2.91E+00 ir: 7.51E-09 iu: 2.19E+00 rsn:   0
  3 2r: 7.10E-10 2x: 1.02E+06 2u: 7.93E-02 ir: 5.02E-10 iu: 1.51E-02 rsn:   0
  4 2r: 2.92E-12 2x: 1.02E+06 2u: 6.04E-03 ir: 2.06E-12 iu: 1.15E-03 rsn: stol
 Step    474 Time=  1.41667E+01 Dt=  2.08333E-02 [hour] snes_conv_reason:    4
  newton =   4 [    6136] linear =     4 [      6136] cuts =  0 [  91]
  --> max chng: dpmx=   1.9608E+02

== RICHARDS FLOW ===============================================================
  0 2r: 2.92E-06 2x: 0.00E+00 2u: 0.00E+00 ir: 1.88E-06 iu: 0.00E+00 rsn:   0
  1 2r: 4.29E-08 2x: 1.02E+06 2u: 3.08E+02 ir: 2.86E-08 iu: 1.92E+02 rsn:   0
  2 2r: 5.84E-11 2x: 1.02E+06 2u: 2.79E+00 ir: 4.06E-11 iu: 1.33E+00 rsn:   0
  3 2r: 1.69E-15 2x: 1.02E+06 2u: 1.44E-03 ir: 1.20E-15 iu: 4.90E-04 rsn: rtol
 Step    475 Time=  1.41875E+01 Dt=  2.08333E-02 [hour] snes_conv_reason:    3
  newton =   3 [    6139] linear =     3 [      6139] cuts =  0 [  91]
  --> max chng: dpmx=   1.9051E+02

== RICHARDS FLOW ===============================================================
  0 2r: 2.90E-06 2x: 0.00E+00 2u: 0.00E+00 ir: 1.84E-06 iu: 0.00E+00 rsn:   0
  1 2r: 4.08E-08 2x: 1.02E+06 2u: 3.08E+02 ir: 1.91E-08 iu: 1.87E+02 rsn:   0
  2 2r: 2.78E-10 2x: 1.02E+06 2u: 3.36E+00 ir: 1.98E-10 iu: 1.55E+00 rsn:   0
  3 2r: 7.56E-14 2x: 1.02E+06 2u: 5.29E-03 ir: 5.35E-14 iu: 9.66E-04 rsn: stol
 Step    476 Time=  1.42083E+01 Dt=  2.08333E-02 [hour] snes_conv_reason:    4
  newton =   3 [    6142] linear =     3 [      6142] cuts =  0 [  91]
  --> max chng: dpmx=   1.8638E+02

== RICHARDS FLOW ===============================================================
  0 2r: 2.87E-06 2x: 0.00E+00 2u: 0.00E+00 ir: 1.78E-06 iu: 0.00E+00 rsn:   0
  1 2r: 5.69E-08 2x: 1.02E+06 2u: 3.11E+02 ir: 2.65E-08 iu: 1.83E+02 rsn:   0
  2 2r: 6.89E-09 2x: 1.02E+06 2u: 4.92E+00 ir: 4.89E-09 iu: 2.17E+00 rsn:   0
  3 2r: 1.41E-10 2x: 1.02E+06 2u: 8.02E-02 ir: 9.94E-11 iu: 1.51E-02 rsn:   0
  4 2r: 5.59E-14 2x: 1.02E+06 2u: 1.69E-03 ir: 3.95E-14 iu: 3.20E-04 rsn: stol
 Step    477 Time=  1.42292E+01 Dt=  2.08333E-02 [hour] snes_conv_reason:    4
  newton =   4 [    6146] linear =     4 [      6146] cuts =  0 [  91]
  --> max chng: dpmx=   1.8411E+02

== RICHARDS FLOW ===============================================================
  0 2r: 2.84E-06 2x: 0.00E+00 2u: 0.00E+00 ir: 1.72E-06 iu: 0.00E+00 rsn:   0
  1 2r: 6.96E-08 2x: 1.02E+06 2u: 3.18E+02 ir: 3.37E-08 iu: 1.82E+02 rsn:   0
  2 2r: 3.54E-10 2x: 1.02E+06 2u: 7.72E+00 ir: 2.47E-10 iu: 3.34E+00 rsn:   0
  3 2r: 6.41E-14 2x: 1.02E+06 2u: 1.05E-02 ir: 4.54E-14 iu: 4.34E-03 rsn:   0
  4 2r: 7.41E-18 2x: 1.02E+06 2u: 1.38E-06 ir: 1.73E-18 iu: 2.59E-07 rsn: rtol
 Step    478 Time=  1.42500E+01 Dt=  2.08333E-02 [hour] snes_conv_reason:    3
  newton =   4 [    6150] linear =     4 [      6150] cuts =  0 [  91]
  --> max chng: dpmx=   1.8447E+02

== RICHARDS FLOW ===============================================================
  0 2r: 2.80E-06 2x: 0.00E+00 2u: 0.00E+00 ir: 1.65E-06 iu: 0.00E+00 rsn:   0
  1 2r: 1.20E-07 2x: 1.02E+06 2u: 3.32E+02 ir: 5.86E-08 iu: 1.84E+02 rsn:   0
  2 2r: 3.34E-08 2x: 1.02E+06 2u: 1.28E+01 ir: 2.37E-08 iu: 5.58E+00 rsn:   0
  3 2r: 2.72E-09 2x: 1.02E+06 2u: 3.92E-01 ir: 1.93E-09 iu: 7.34E-02 rsn:   0
  4 2r: 1.55E-11 2x: 1.02E+06 2u: 3.71E-02 ir: 1.10E-11 iu: 6.97E-03 rsn:   0
  5 2r: 5.27E-16 2x: 1.02E+06 2u: 2.14E-04 ir: 3.73E-16 iu: 4.02E-05 rsn: rtol
 Step    479 Time=  1.42708E+01 Dt=  2.08333E-02 [hour] snes_conv_reason:    3
  newton =   5 [    6155] linear =     5 [      6155] cuts =  0 [  91]
  --> max chng: dpmx=   1.8910E+02

== RICHARDS FLOW ===============================================================
  0 2r: 2.76E-06 2x: 0.00E+00 2u: 0.00E+00 ir: 1.57E-06 iu: 0.00E+00 rsn:   0
  1 2r: 5.55E-08 2x: 1.02E+06 2u: 1.19E+02 ir: 2.99E-08 iu: 6.44E+01 rsn:   0
  2 2r: 5.47E-09 2x: 1.02E+06 2u: 2.28E+00 ir: 3.87E-09 iu: 1.25E+00 rsn:   0
  3 2r: 1.82E-10 2x: 1.02E+06 2u: 4.41E-02 ir: 1.29E-10 iu: 8.29E-03 rsn:   0
  4 2r: 1.93E-13 2x: 1.02E+06 2u: 1.57E-03 ir: 1.37E-13 iu: 2.95E-04 rsn: stol
 Step    480 Time=  1.42777E+01 Dt=  6.87500E-03 [hour] snes_conv_reason:    4
  newton =   4 [    6159] linear =     4 [      6159] cuts =  0 [  91]
  --> max chng: dpmx=   6.5674E+01

== RICHARDS FLOW ===============================================================
  0 2r: 2.74E-06 2x: 0.00E+00 2u: 0.00E+00 ir: 1.52E-06 iu: 0.00E+00 rsn:   0
  1 2r: 1.49E-07 2x: 1.02E+06 2u: 2.45E+02 ir: 7.19E-08 iu: 1.30E+02 rsn:   0
  2 2r: 2.19E-09 2x: 1.02E+06 2u: 1.24E+01 ir: 1.54E-09 iu: 6.24E+00 rsn:   0
  3 2r: 4.15E-12 2x: 1.02E+06 2u: 5.39E-02 ir: 2.94E-12 iu: 1.84E-02 rsn:   0
  4 2r: 1.78E-17 2x: 1.02E+06 2u: 7.75E-05 ir: 1.27E-17 iu: 1.45E-05 rsn: rtol
 Step    481 Time=  1.42915E+01 Dt=  1.37500E-02 [hour] snes_conv_reason:    3
  newton =   4 [    6163] linear =     4 [      6163] cuts =  0 [  91]
  --> max chng: dpmx=   1.3608E+02

== RICHARDS FLOW ===============================================================
  0 2r: 2.70E-06 2x: 0.00E+00 2u: 0.00E+00 ir: 1.44E-06 iu: 0.00E+00 rsn:   0
  1 2r: 4.85E-07 2x: 1.02E+06 2u: 5.38E+02 ir: 2.03E-07 iu: 2.75E+02 rsn:   0
  2 2r: 5.10E-08 2x: 1.02E+06 2u: 1.24E+02 ir: 2.71E-08 iu: 6.20E+01 rsn:   0
  3 2r: 7.31E-10 2x: 1.02E+06 2u: 1.35E+01 ir: 4.97E-10 iu: 7.26E+00 rsn:   0
  4 2r: 1.92E-13 2x: 1.02E+06 2u: 2.21E-01 ir: 1.45E-13 iu: 1.22E-01 rsn:   0
  5 2r: 7.06E-18 2x: 1.02E+06 2u: 6.33E-05 ir: 1.76E-18 iu: 3.50E-05 rsn: rtol
 Step    482 Time=  1.43190E+01 Dt=  2.75000E-02 [hour] snes_conv_reason:    3
  newton =   5 [    6168] linear =     5 [      6168] cuts =  0 [  91]
  --> max chng: dpmx=   3.4412E+02

== RICHARDS FLOW ===============================================================
  0 2r: 2.60E-06 2x: 0.00E+00 2u: 0.00E+00 ir: 1.29E-06 iu: 0.00E+00 rsn:   0
  1 2r: 1.31E-06 2x: 1.02E+06 2u: 3.50E+02 ir: 1.13E-06 iu: 1.89E+02 rsn:   0
  2 2r: 2.26E-06 2x: 1.02E+06 2u: 4.41E+02 ir: 1.38E-06 iu: 2.28E+02 rsn:   0
  3 2r: 1.28E-05 2x: 1.02E+06 2u: 1.29E+03 ir: 1.11E-05 iu: 5.06E+02 rsn:   0
  4 2r: 9.28E-12 2x: 1.03E+06 2u: 1.02E+04 ir: 8.03E-12 iu: 1.66E+03 rsn:   0
  5 2r: 6.99E-18 2x: 1.03E+06 2u: 3.40E-03 ir: 1.57E-18 iu: 6.97E-04 rsn: rtol
 Step    483 Time=  1.43280E+01 Dt=  9.07500E-03 [hour] snes_conv_reason:    3
  newton =   5 [    6173] linear =     5 [      6173] cuts =  0 [  91]
  --> max chng: dpmx=   2.2319E+03

== RICHARDS FLOW ===============================================================
  0 2r: 2.08E-06 2x: 0.00E+00 2u: 0.00E+00 ir: 1.01E-06 iu: 0.00E+00 rsn:   0
  1 2r: 8.09E-12 2x: 1.07E+06 2u: 4.53E+04 ir: 3.88E-12 iu: 7.48E+03 rsn:   0
  2 2r: 7.76E-18 2x: 1.07E+06 2u: 6.41E-02 ir: 1.84E-18 iu: 1.35E-02 rsn: rtol
 Step    484 Time=  1.43310E+01 Dt=  2.99475E-03 [hour] snes_conv_reason:    3
  newton =   2 [    6175] linear =     2 [      6175] cuts =  0 [  91]
  --> max chng: dpmx=   7.4757E+03

== RICHARDS FLOW ===============================================================
  0 2r: 1.78E-08 2x: 0.00E+00 2u: 0.00E+00 ir: 2.95E-09 iu: 0.00E+00 rsn:   0
  1 2r: 1.22E-15 2x: 1.07E+06 2u: 9.63E+02 ir: 1.96E-16 iu: 1.37E+02 rsn:   0
  2 2r: 8.47E-18 2x: 1.07E+06 2u: 2.56E-05 ir: 2.17E-18 iu: 4.32E-06 rsn: rtol
 Step    485 Time=  1.43333E+01 Dt=  2.30525E-03 [hour] snes_conv_reason:    3
  newton =   2 [    6177] linear =     2 [      6177] cuts =  0 [  91]
  --> max chng: dpmx=   1.3748E+02

== RICHARDS FLOW ===============================================================
  0 2r: 4.93E-10 2x: 0.00E+00 2u: 0.00E+00 ir: 7.04E-11 iu: 0.00E+00 rsn:   0
  1 2r: 7.60E-18 2x: 1.07E+06 2u: 2.73E+01 ir: 1.73E-18 iu: 3.84E+00 rsn:   0
  2 2r: 7.77E-18 2x: 1.07E+06 2u: 2.80E-08 ir: 1.57E-18 iu: 4.51E-09 rsn: stol
 Step    486 Time=  1.43393E+01 Dt=  5.98950E-03 [hour] snes_conv_reason:    4
  newton =   2 [    6179] linear =     2 [      6179] cuts =  0 [  91]
  --> max chng: dpmx=   3.8412E+00

== RICHARDS FLOW ===============================================================
  0 2r: 5.37E-12 2x: 0.00E+00 2u: 0.00E+00 ir: 7.57E-13 iu: 0.00E+00 rsn:   0
  1 2r: 7.28E-18 2x: 1.07E+06 2u: 2.99E-01 ir: 1.95E-18 iu: 4.20E-02 rsn:   0
  2 2r: 7.66E-18 2x: 1.07E+06 2u: 2.62E-09 ir: 1.73E-18 iu: 4.70E-10 rsn: stol
 Step    487 Time=  1.43513E+01 Dt=  1.19790E-02 [hour] snes_conv_reason:    4
  newton =   2 [    6181] linear =     2 [      6181] cuts =  0 [  91]
  --> max chng: dpmx=   4.2024E-02

== RICHARDS FLOW ===============================================================
  0 2r: 2.94E-14 2x: 0.00E+00 2u: 0.00E+00 ir: 4.14E-15 iu: 0.00E+00 rsn:   0
  1 2r: 7.53E-18 2x: 1.07E+06 2u: 1.64E-03 ir: 1.44E-18 iu: 2.31E-04 rsn: stol
 Step    488 Time=  1.43753E+01 Dt=  2.39580E-02 [hour] snes_conv_reason:    4
  newton =   1 [    6182] linear =     1 [      6182] cuts =  0 [  91]
  --> max chng: dpmx=   2.3078E-04

== RICHARDS FLOW ===============================================================
  0 2r: 8.12E-17 2x: 0.00E+00 2u: 0.00E+00 ir: 1.25E-17 iu: 0.00E+00 rsn:   0
  1 2r: 7.87E-18 2x: 1.07E+06 2u: 4.51E-06 ir: 1.78E-18 iu: 6.34E-07 rsn: stol
 Step    489 Time=  1.44167E+01 Dt=  4.14068E-02 [hour] snes_conv_reason:    4
  newton =   1 [    6183] linear =     1 [      6183] cuts =  0 [  91]
  --> max chng: dpmx=   6.3445E-07

== RICHARDS FLOW ===============================================================
  0 2r: 7.90E-18 2x: 0.00E+00 2u: 0.00E+00 ir: 1.76E-18 iu: 0.00E+00 rsn:   0
  1 2r: 6.88E-18 2x: 1.07E+06 2u: 7.26E-09 ir: 1.74E-18 iu: 1.02E-09 rsn: stol
 Step    490 Time=  1.44646E+01 Dt=  4.79160E-02 [hour] snes_conv_reason:    4
  newton =   1 [    6184] linear =     1 [      6184] cuts =  0 [  91]
  --> max chng: dpmx=   1.0186E-09

== RICHARDS FLOW ===============================================================
  0 2r: 6.89E-18 2x: 0.00E+00 2u: 0.00E+00 ir: 1.75E-18 iu: 0.00E+00 rsn:   0
  1 2r: 8.94E-18 2x: 1.07E+06 2u: 1.43E-10 ir: 1.98E-18 iu: 3.06E-11 rsn: stol
 Step    491 Time=  1.45000E+01 Dt=  3.54173E-02 [hour] snes_conv_reason:    4
  newton =   1 [    6185] linear =     1 [      6185] cuts =  0 [  91]
  --> max chng: dpmx=   2.9104E-11

== RICHARDS FLOW ===============================================================
  0 2r: 8.94E-18 2x: 0.00E+00 2u: 0.00E+00 ir: 1.98E-18 iu: 0.00E+00 rsn:   0
  1 2r: 7.68E-18 2x: 1.07E+06 2u: 1.28E-10 ir: 1.90E-18 iu: 2.75E-11 rsn: stol
 Step    492 Time=  1.45833E+01 Dt=  8.33333E-02 [hour] snes_conv_reason:    4
  newton =   1 [    6186] linear =     1 [      6186] cuts =  0 [  91]
  --> max chng: dpmx=   2.9104E-11

== RICHARDS FLOW ===============================================================
  0 2r: 7.68E-18 2x: 0.00E+00 2u: 0.00E+00 ir: 1.90E-18 iu: 0.00E+00 rsn:   0
  1 2r: 7.21E-18 2x: 1.07E+06 2u: 4.17E-11 ir: 1.65E-18 iu: 8.43E-12 rsn: stol
 Step    493 Time=  1.46667E+01 Dt=  8.33333E-02 [hour] snes_conv_reason:    4
  newton =   1 [    6187] linear =     1 [      6187] cuts =  0 [  91]
  --> max chng: dpmx=   1.4552E-11

== RICHARDS FLOW ===============================================================
  0 2r: 7.21E-18 2x: 0.00E+00 2u: 0.00E+00 ir: 1.65E-18 iu: 0.00E+00 rsn:   0
  1 2r: 7.97E-18 2x: 1.07E+06 2u: 6.43E-11 ir: 1.79E-18 iu: 1.50E-11 rsn: stol
 Step    494 Time=  1.47500E+01 Dt=  8.33333E-02 [hour] snes_conv_reason:    4
  newton =   1 [    6188] linear =     1 [      6188] cuts =  0 [  91]
  --> max chng: dpmx=   1.4552E-11

== RICHARDS FLOW ===============================================================
  0 2r: 7.97E-18 2x: 0.00E+00 2u: 0.00E+00 ir: 1.79E-18 iu: 0.00E+00 rsn:   0
  1 2r: 7.82E-18 2x: 1.07E+06 2u: 4.80E-11 ir: 1.92E-18 iu: 1.12E-11 rsn: stol
 Step    495 Time=  1.48333E+01 Dt=  8.33333E-02 [hour] snes_conv_reason:    4
  newton =   1 [    6189] linear =     1 [      6189] cuts =  0 [  91]
  --> max chng: dpmx=   1.4552E-11

== RICHARDS FLOW ===============================================================
  0 2r: 7.82E-18 2x: 0.00E+00 2u: 0.00E+00 ir: 1.92E-18 iu: 0.00E+00 rsn:   0
  1 2r: 8.53E-18 2x: 1.07E+06 2u: 6.50E-11 ir: 1.82E-18 iu: 1.38E-11 rsn: stol
 Step    496 Time=  1.49167E+01 Dt=  8.33333E-02 [hour] snes_conv_reason:    4
  newton =   1 [    6190] linear =     1 [      6190] cuts =  0 [  91]
  --> max chng: dpmx=   1.4552E-11

== RICHARDS FLOW ===============================================================
  0 2r: 8.53E-18 2x: 0.00E+00 2u: 0.00E+00 ir: 1.82E-18 iu: 0.00E+00 rsn:   0
  1 2r: 7.83E-18 2x: 1.07E+06 2u: 1.40E-10 ir: 1.82E-18 iu: 2.38E-11 rsn: stol
 Step    497 Time=  1.50000E+01 Dt=  8.33333E-02 [hour] snes_conv_reason:    4
  newton =   1 [    6191] linear =     1 [      6191] cuts =  0 [  91]
  --> max chng: dpmx=   2.9104E-11

 Wall Clock Time:  2.1098E+00 [sec]   3.5164E-02 [min]   5.8606E-04 [hr]
