
=================
  PFLOTRAN v4.0
=================

 Extent of Gridded Domain
  X: 0.0000000000000000 - 0.20000000000000001
  Y: 0.0000000000000000 - 0.20000000000000001
  Z: -1.0000000000000000 - 0.0000000000000000


=+=+=+=+=+=+=+=+=+=+=+=+=+=+=+=+=+=+=+=+=+=+=+=+=+=+=+=+=+=+=+=+=+=+=+=+=+=+=+=+

  Initial Condition

--------------------------------------------------------------------------------
          Flow Condition:   initial
                  Region:   all
--------------------------------------------------------------------------------

  Flow Condition: initial
    Synchronize time with update: no
    Time units: yr
    Length units: m
      Datum:
        Dataset: Unnamed Ascii Dataset
          Type: dataset_ascii_type
          Transient: no
          Array Rank:  3

    Sub Condition: pressure
      Type: dirichlet
      Gradient:
      Data:
        Dataset: Unnamed Ascii Dataset
          Type: dataset_ascii_type
          Transient: no
          Array Rank:  1

--------------------------------------------------------------------------------

=+=+=+=+=+=+=+=+=+=+=+=+=+=+=+=+=+=+=+=+=+=+=+=+=+=+=+=+=+=+=+=+=+=+=+=+=+=+=+=+

  Boundary Condition

--------------------------------------------------------------------------------
          Flow Condition:   top_bc
                  Region:   top
--------------------------------------------------------------------------------

  Flow Condition: top_bc
    Synchronize time with update: no
    Time units: yr
    Length units: m
      Datum:

    Sub Condition: pressure
      Type: dirichlet
      Gradient:
      Data:
        Dataset: Unnamed Ascii Dataset
          Type: dataset_ascii_type
          Transient: no
          Array Rank:  1

--------------------------------------------------------------------------------

 Requested processors and decomposition =     1, npx,y,z=   -1  -1  -1
 Actual decomposition: npx,y,z=    1   1   1


FLOW Time Stepper
acceleration: on
acceleration threshold: 5
number of ramp entries: 5
ramp entry #1: 2.0000
ramp entry #2: 2.0000
ramp entry #3: 2.0000
ramp entry #4: 2.0000
ramp entry #5: 2.0000
ramp entry #6: 1.8000
ramp entry #7: 1.6000
ramp entry #8: 1.4000
ramp entry #9: 1.2000
ramp entry #10: 1.0000
ramp entry #11: 1.0000
ramp entry #12: 1.0000
ramp entry #13: 1.0000
maximum number of steps: 999999
constant time steps threshold: 5
maximum number of cuts: 16
reduction factor: 5.000000E-01
maximum growth factor: 2.000000E+00

FLOW Newton Solver
atol: 1.000000E-50
rtol: 1.000000E-08
stol: 1.000000E-08
dtol: 1.000000E+04
maxnorm: 1.000000E+20
inftolres: -9.990000E+02
inftolupd: -9.990000E+02
inftolrelupd: -9.990000E+02
inftolsclres: -9.990000E+02
max iter: 50
min iter: 1
maxf: 10000
matrix type: baij
precond. matrix type: baij
inexact newton: off
print convergence: on
print detailed convergence: off
check infinity norm: on

FLOW Linear Solver
solver: bcgs
preconditioner: ilu
atol: 1.000000E-50
rtol: 1.000000E-05
dtol: 1.000000E+04
maximum iteration: 10000

== RICHARDS FLOW ===============================================================
  0 2r: 1.47E-03 2x: 0.00E+00 2u: 0.00E+00 ir: 1.47E-03 iu: 0.00E+00 rsn:   0
  1 2r: 7.20E-05 2x: 9.20E+05 2u: 7.52E+02 ir: 7.20E-05 iu: 7.52E+02 rsn:   0
  2 2r: 1.58E-07 2x: 9.20E+05 2u: 3.34E+01 ir: 1.58E-07 iu: 3.34E+01 rsn:   0
  3 2r: 7.59E-13 2x: 9.20E+05 2u: 7.35E-02 ir: 7.59E-13 iu: 7.35E-02 rsn: rtol
 Step      1 Time=  2.77778E-05 Dt=  2.77778E-05 [hour] snes_conv_reason:    3
  newton =   3 [       3] linear =     3 [         3] cuts =  0 [   0]
  --> max chng: dpmx=   7.1842E+02

== RICHARDS FLOW ===============================================================
  0 2r: 1.37E-03 2x: 0.00E+00 2u: 0.00E+00 ir: 1.37E-03 iu: 0.00E+00 rsn:   0
  1 2r: 1.09E-04 2x: 9.20E+05 2u: 1.19E+03 ir: 1.09E-04 iu: 1.19E+03 rsn:   0
  2 2r: 6.10E-07 2x: 9.20E+05 2u: 8.16E+01 ir: 6.10E-07 iu: 8.16E+01 rsn:   0
  3 2r: 1.92E-11 2x: 9.20E+05 2u: 4.61E-01 ir: 1.92E-11 iu: 4.61E-01 rsn:   0
  4 2r: 1.96E-17 2x: 9.20E+05 2u: 1.45E-05 ir: 1.04E-17 iu: 1.45E-05 rsn: rtol
 Step      2 Time=  8.33333E-05 Dt=  5.55556E-05 [hour] snes_conv_reason:    3
  newton =   4 [       7] linear =     4 [         7] cuts =  0 [   0]
  --> max chng: dpmx=   1.1091E+03

== RICHARDS FLOW ===============================================================
  0 2r: 1.20E-03 2x: 0.00E+00 2u: 0.00E+00 ir: 1.20E-03 iu: 0.00E+00 rsn:   0
  1 2r: 1.38E-04 2x: 9.20E+05 2u: 1.63E+03 ir: 1.38E-04 iu: 1.63E+03 rsn:   0
  2 2r: 1.52E-06 2x: 9.20E+05 2u: 1.51E+02 ir: 1.52E-06 iu: 1.51E+02 rsn:   0
  3 2r: 1.86E-10 2x: 9.20E+05 2u: 1.69E+00 ir: 1.86E-10 iu: 1.69E+00 rsn:   0
  4 2r: 7.15E-18 2x: 9.20E+05 2u: 2.07E-04 ir: 5.20E-18 iu: 2.07E-04 rsn: rtol
 Step      3 Time=  1.94444E-04 Dt=  1.11111E-04 [hour] snes_conv_reason:    3
  newton =   4 [      11] linear =     4 [        11] cuts =  0 [   0]
  --> max chng: dpmx=   1.4801E+03

== RICHARDS FLOW ===============================================================
  0 2r: 9.82E-04 2x: 0.00E+00 2u: 0.00E+00 ir: 9.82E-04 iu: 0.00E+00 rsn:   0
  1 2r: 1.37E-04 2x: 9.20E+05 2u: 1.88E+03 ir: 1.37E-04 iu: 1.88E+03 rsn:   0
  2 2r: 2.13E-06 2x: 9.20E+05 2u: 2.01E+02 ir: 2.13E-06 iu: 2.01E+02 rsn:   0
  3 2r: 5.33E-10 2x: 9.20E+05 2u: 3.23E+00 ir: 5.33E-10 iu: 3.23E+00 rsn:   0
  4 2r: 2.99E-17 2x: 9.20E+05 2u: 8.07E-04 ir: 2.95E-17 iu: 8.06E-04 rsn: rtol
 Step      4 Time=  4.16667E-04 Dt=  2.22222E-04 [hour] snes_conv_reason:    3
  newton =   4 [      15] linear =     4 [        15] cuts =  0 [   0]
  --> max chng: dpmx=   1.6730E+03

== RICHARDS FLOW ===============================================================
  0 2r: 7.31E-04 2x: 0.00E+00 2u: 0.00E+00 ir: 7.31E-04 iu: 0.00E+00 rsn:   0
  1 2r: 1.02E-04 2x: 9.20E+05 2u: 1.80E+03 ir: 1.01E-04 iu: 1.80E+03 rsn:   0
  2 2r: 1.59E-06 2x: 9.20E+05 2u: 1.96E+02 ir: 1.56E-06 iu: 1.91E+02 rsn:   0
  3 2r: 3.91E-10 2x: 9.20E+05 2u: 3.59E+00 ir: 3.89E-10 iu: 3.05E+00 rsn:   0
  4 2r: 2.29E-17 2x: 9.20E+05 2u: 7.96E-04 ir: 2.26E-17 iu: 7.58E-04 rsn: rtol
 Step      5 Time=  8.61111E-04 Dt=  4.44444E-04 [hour] snes_conv_reason:    3
  newton =   4 [      19] linear =     4 [        19] cuts =  0 [   0]
  --> max chng: dpmx=   1.6075E+03

== RICHARDS FLOW ===============================================================
  0 2r: 4.83E-04 2x: 0.00E+00 2u: 0.00E+00 ir: 4.83E-04 iu: 0.00E+00 rsn:   0
  1 2r: 6.10E-05 2x: 9.21E+05 2u: 1.54E+03 ir: 5.74E-05 iu: 1.44E+03 rsn:   0
  2 2r: 1.06E-06 2x: 9.21E+05 2u: 2.31E+02 ir: 9.01E-07 iu: 1.90E+02 rsn:   0
  3 2r: 2.51E-10 2x: 9.21E+05 2u: 6.81E+00 ir: 2.51E-10 iu: 6.49E+00 rsn:   0
  4 2r: 1.86E-17 2x: 9.21E+05 2u: 7.02E-04 ir: 1.60E-17 iu: 6.12E-04 rsn: rtol
 Step      6 Time=  1.75000E-03 Dt=  8.88889E-04 [hour] snes_conv_reason:    3
  newton =   4 [      23] linear =     4 [        23] cuts =  0 [   0]
  --> max chng: dpmx=   1.3068E+03

== RICHARDS FLOW ===============================================================
  0 2r: 2.63E-04 2x: 0.00E+00 2u: 0.00E+00 ir: 2.59E-04 iu: 0.00E+00 rsn:   0
  1 2r: 1.81E-05 2x: 9.21E+05 2u: 2.43E+03 ir: 1.81E-05 iu: 2.26E+03 rsn:   0
  2 2r: 1.90E-07 2x: 9.21E+05 2u: 8.73E+01 ir: 1.37E-07 iu: 6.87E+01 rsn:   0
  3 2r: 1.39E-11 2x: 9.21E+05 2u: 1.79E+00 ir: 1.38E-11 iu: 1.77E+00 rsn:   0
  4 2r: 1.68E-18 2x: 9.21E+05 2u: 6.10E-05 ir: 1.52E-18 iu: 3.95E-05 rsn: rtol
 Step      7 Time=  3.52778E-03 Dt=  1.77778E-03 [hour] snes_conv_reason:    3
  newton =   4 [      27] linear =     4 [        27] cuts =  0 [   0]
  --> max chng: dpmx=   2.1925E+03

== RICHARDS FLOW ===============================================================
  0 2r: 1.26E-04 2x: 0.00E+00 2u: 0.00E+00 ir: 9.48E-05 iu: 0.00E+00 rsn:   0
  1 2r: 6.08E-05 2x: 9.21E+05 2u: 3.57E+03 ir: 5.77E-05 iu: 3.53E+03 rsn:   0
  2 2r: 5.43E-06 2x: 9.21E+05 2u: 7.21E+02 ir: 4.81E-06 iu: 7.13E+02 rsn:   0
  3 2r: 5.83E-08 2x: 9.21E+05 2u: 1.46E+02 ir: 5.69E-08 iu: 1.24E+02 rsn:   0
  4 2r: 6.67E-12 2x: 9.21E+05 2u: 9.23E-01 ir: 6.23E-12 iu: 9.05E-01 rsn:   0
  5 2r: 6.86E-19 2x: 9.21E+05 2u: 1.39E-04 ir: 4.34E-19 iu: 9.87E-05 rsn: rtol
 Step      8 Time=  7.08333E-03 Dt=  3.55556E-03 [hour] snes_conv_reason:    3
  newton =   5 [      32] linear =     5 [        32] cuts =  0 [   0]
  --> max chng: dpmx=   2.7355E+03

== RICHARDS FLOW ===============================================================
  0 2r: 8.36E-05 2x: 0.00E+00 2u: 0.00E+00 ir: 7.98E-05 iu: 0.00E+00 rsn:   0
  1 2r: 7.18E-06 2x: 9.21E+05 2u: 6.85E+02 ir: 6.99E-06 iu: 6.41E+02 rsn:   0
  2 2r: 3.15E-08 2x: 9.21E+05 2u: 4.29E+01 ir: 3.03E-08 iu: 4.12E+01 rsn:   0
  3 2r: 7.76E-13 2x: 9.21E+05 2u: 2.34E-01 ir: 7.57E-13 iu: 1.92E-01 rsn: rtol
 Step      9 Time=  8.25667E-03 Dt=  1.17333E-03 [hour] snes_conv_reason:    3
  newton =   3 [      35] linear =     3 [        35] cuts =  0 [   0]
  --> max chng: dpmx=   5.9935E+02

== RICHARDS FLOW ===============================================================
  0 2r: 7.46E-05 2x: 0.00E+00 2u: 0.00E+00 ir: 7.26E-05 iu: 0.00E+00 rsn:   0
  1 2r: 1.13E-05 2x: 9.22E+05 2u: 1.15E+03 ir: 1.07E-05 iu: 8.69E+02 rsn:   0
  2 2r: 1.58E-07 2x: 9.22E+05 2u: 8.81E+01 ir: 1.34E-07 iu: 8.30E+01 rsn:   0
  3 2r: 3.23E-11 2x: 9.22E+05 2u: 2.32E+00 ir: 3.04E-11 iu: 2.04E+00 rsn:   0
  4 2r: 2.09E-18 2x: 9.22E+05 2u: 3.09E-04 ir: 1.73E-18 iu: 2.49E-04 rsn: rtol
 Step     10 Time=  1.06033E-02 Dt=  2.34667E-03 [hour] snes_conv_reason:    3
  newton =   4 [      39] linear =     4 [        39] cuts =  0 [   0]
  --> max chng: dpmx=   7.8452E+02

== RICHARDS FLOW ===============================================================
  0 2r: 5.83E-05 2x: 0.00E+00 2u: 0.00E+00 ir: 5.45E-05 iu: 0.00E+00 rsn:   0
  1 2r: 9.38E-06 2x: 9.22E+05 2u: 2.31E+03 ir: 8.49E-06 iu: 2.14E+03 rsn:   0
  2 2r: 8.56E-08 2x: 9.22E+05 2u: 2.35E+02 ir: 7.21E-08 iu: 2.15E+02 rsn:   0
  3 2r: 1.63E-11 2x: 9.22E+05 2u: 3.27E+00 ir: 1.41E-11 iu: 2.85E+00 rsn:   0
  4 2r: 1.30E-18 2x: 9.22E+05 2u: 7.04E-04 ir: 1.25E-18 iu: 6.86E-04 rsn: rtol
 Step     11 Time=  1.52967E-02 Dt=  4.69333E-03 [hour] snes_conv_reason:    3
  newton =   4 [      43] linear =     4 [        43] cuts =  0 [   0]
  --> max chng: dpmx=   1.9182E+03

== RICHARDS FLOW ===============================================================
  0 2r: 4.30E-05 2x: 0.00E+00 2u: 0.00E+00 ir: 3.08E-05 iu: 0.00E+00 rsn:   0
  1 2r: 2.38E-05 2x: 9.22E+05 2u: 3.10E+03 ir: 2.24E-05 iu: 2.97E+03 rsn:   0
  2 2r: 2.80E-06 2x: 9.22E+05 2u: 6.18E+02 ir: 2.38E-06 iu: 5.94E+02 rsn:   0
  3 2r: 3.69E-08 2x: 9.22E+05 2u: 1.46E+02 ir: 3.45E-08 iu: 1.25E+02 rsn:   0
  4 2r: 7.87E-12 2x: 9.22E+05 2u: 1.41E+00 ir: 7.01E-12 iu: 1.16E+00 rsn:   0
  5 2r: 1.15E-18 2x: 9.22E+05 2u: 3.54E-04 ir: 8.67E-19 iu: 2.70E-04 rsn: rtol
 Step     12 Time=  2.36300E-02 Dt=  8.33333E-03 [hour] snes_conv_reason:    3
  newton =   5 [      48] linear =     5 [        48] cuts =  0 [   0]
  --> max chng: dpmx=   2.2979E+03

== RICHARDS FLOW ===============================================================
  0 2r: 3.32E-05 2x: 0.00E+00 2u: 0.00E+00 ir: 2.93E-05 iu: 0.00E+00 rsn:   0
  1 2r: 2.67E-06 2x: 9.22E+05 2u: 7.04E+02 ir: 2.62E-06 iu: 5.69E+02 rsn:   0
  2 2r: 1.33E-08 2x: 9.22E+05 2u: 3.57E+01 ir: 1.23E-08 iu: 3.52E+01 rsn:   0
  3 2r: 3.24E-13 2x: 9.22E+05 2u: 2.24E-01 ir: 3.09E-13 iu: 1.67E-01 rsn: rtol
 Step     13 Time=  2.63800E-02 Dt=  2.75000E-03 [hour] snes_conv_reason:    3
  newton =   3 [      51] linear =     3 [        51] cuts =  0 [   0]
  --> max chng: dpmx=   5.3352E+02

== RICHARDS FLOW ===============================================================
  0 2r: 3.03E-05 2x: 0.00E+00 2u: 0.00E+00 ir: 2.70E-05 iu: 0.00E+00 rsn:   0
  1 2r: 4.73E-06 2x: 9.23E+05 2u: 1.40E+03 ir: 4.61E-06 iu: 1.12E+03 rsn:   0
  2 2r: 7.20E-08 2x: 9.23E+05 2u: 8.64E+01 ir: 6.11E-08 iu: 7.72E+01 rsn:   0
  3 2r: 1.79E-11 2x: 9.23E+05 2u: 1.76E+00 ir: 1.56E-11 iu: 1.43E+00 rsn:   0
  4 2r: 1.52E-18 2x: 9.23E+05 2u: 3.97E-04 ir: 9.76E-19 iu: 2.95E-04 rsn: rtol
 Step     14 Time=  3.18800E-02 Dt=  5.50000E-03 [hour] snes_conv_reason:    3
  newton =   4 [      55] linear =     4 [        55] cuts =  0 [   0]
  --> max chng: dpmx=   1.0867E+03

== RICHARDS FLOW ===============================================================
  0 2r: 2.58E-05 2x: 0.00E+00 2u: 0.00E+00 ir: 2.10E-05 iu: 0.00E+00 rsn:   0
  1 2r: 4.53E-06 2x: 9.23E+05 2u: 2.05E+03 ir: 3.23E-06 iu: 1.89E+03 rsn:   0
  2 2r: 1.26E-07 2x: 9.23E+05 2u: 2.53E+02 ir: 1.19E-07 iu: 2.36E+02 rsn:   0
  3 2r: 1.05E-10 2x: 9.23E+05 2u: 8.10E+00 ir: 1.01E-10 iu: 7.01E+00 rsn:   0
  4 2r: 7.06E-17 2x: 9.23E+05 2u: 6.43E-03 ir: 6.74E-17 iu: 5.84E-03 rsn: rtol
 Step     15 Time=  4.02133E-02 Dt=  8.33333E-03 [hour] snes_conv_reason:    3
  newton =   4 [      59] linear =     4 [        59] cuts =  0 [   0]
  --> max chng: dpmx=   1.6475E+03

== RICHARDS FLOW ===============================================================
  0 2r: 2.23E-05 2x: 0.00E+00 2u: 0.00E+00 ir: 1.66E-05 iu: 0.00E+00 rsn:   0
  1 2r: 4.81E-06 2x: 9.23E+05 2u: 1.62E+03 ir: 4.56E-06 iu: 1.44E+03 rsn:   0
  2 2r: 1.64E-07 2x: 9.23E+05 2u: 1.99E+02 ir: 1.47E-07 iu: 1.87E+02 rsn:   0
  3 2r: 1.47E-10 2x: 9.23E+05 2u: 8.22E+00 ir: 1.35E-10 iu: 5.85E+00 rsn:   0
  4 2r: 1.35E-16 2x: 9.23E+05 2u: 6.96E-03 ir: 1.23E-16 iu: 5.54E-03 rsn: rtol
 Step     16 Time=  4.85467E-02 Dt=  8.33333E-03 [hour] snes_conv_reason:    3
  newton =   4 [      63] linear =     4 [        63] cuts =  0 [   0]
  --> max chng: dpmx=   1.2503E+03

== RICHARDS FLOW ===============================================================
  0 2r: 1.98E-05 2x: 0.00E+00 2u: 0.00E+00 ir: 1.64E-05 iu: 0.00E+00 rsn:   0
  1 2r: 3.56E-06 2x: 9.24E+05 2u: 1.42E+03 ir: 3.46E-06 iu: 9.84E+02 rsn:   0
  2 2r: 8.04E-08 2x: 9.23E+05 2u: 1.07E+02 ir: 6.90E-08 iu: 1.06E+02 rsn:   0
  3 2r: 3.37E-11 2x: 9.23E+05 2u: 3.26E+00 ir: 3.00E-11 iu: 2.56E+00 rsn:   0
  4 2r: 6.78E-18 2x: 9.23E+05 2u: 1.27E-03 ir: 5.69E-18 iu: 9.06E-04 rsn: rtol
 Step     17 Time=  5.68800E-02 Dt=  8.33333E-03 [hour] snes_conv_reason:    3
  newton =   4 [      67] linear =     4 [        67] cuts =  0 [   0]
  --> max chng: dpmx=   9.7223E+02

== RICHARDS FLOW ===============================================================
  0 2r: 1.75E-05 2x: 0.00E+00 2u: 0.00E+00 ir: 1.42E-05 iu: 0.00E+00 rsn:   0
  1 2r: 2.04E-06 2x: 9.24E+05 2u: 1.38E+03 ir: 1.95E-06 iu: 1.18E+03 rsn:   0
  2 2r: 1.60E-08 2x: 9.24E+05 2u: 9.68E+01 ir: 1.57E-08 iu: 7.83E+01 rsn:   0
  3 2r: 1.40E-12 2x: 9.24E+05 2u: 5.35E-01 ir: 1.22E-12 iu: 4.09E-01 rsn:   0
  4 2r: 7.57E-19 2x: 9.24E+05 2u: 4.01E-05 ir: 5.96E-19 iu: 2.89E-05 rsn: rtol
 Step     18 Time=  6.52133E-02 Dt=  8.33333E-03 [hour] snes_conv_reason:    3
  newton =   4 [      71] linear =     4 [        71] cuts =  0 [   0]
  --> max chng: dpmx=   1.0966E+03

== RICHARDS FLOW ===============================================================
  0 2r: 1.60E-05 2x: 0.00E+00 2u: 0.00E+00 ir: 1.15E-05 iu: 0.00E+00 rsn:   0
  1 2r: 1.71E-06 2x: 9.24E+05 2u: 1.27E+03 ir: 1.37E-06 iu: 1.13E+03 rsn:   0
  2 2r: 2.13E-08 2x: 9.24E+05 2u: 1.07E+02 ir: 2.03E-08 iu: 1.00E+02 rsn:   0
  3 2r: 3.17E-12 2x: 9.24E+05 2u: 1.40E+00 ir: 3.03E-12 iu: 1.24E+00 rsn:   0
  4 2r: 5.55E-19 2x: 9.24E+05 2u: 2.03E-04 ir: 4.34E-19 iu: 1.84E-04 rsn: rtol
 Step     19 Time=  7.35467E-02 Dt=  8.33333E-03 [hour] snes_conv_reason:    3
  newton =   4 [      75] linear =     4 [        75] cuts =  0 [   0]
  --> max chng: dpmx=   1.0291E+03

== RICHARDS FLOW ===============================================================
  0 2r: 1.50E-05 2x: 0.00E+00 2u: 0.00E+00 ir: 1.09E-05 iu: 0.00E+00 rsn:   0
  1 2r: 1.76E-06 2x: 9.24E+05 2u: 1.12E+03 ir: 1.66E-06 iu: 9.54E+02 rsn:   0
  2 2r: 2.49E-08 2x: 9.24E+05 2u: 8.94E+01 ir: 2.29E-08 iu: 8.55E+01 rsn:   0
  3 2r: 3.72E-12 2x: 9.24E+05 2u: 1.34E+00 ir: 3.46E-12 iu: 1.07E+00 rsn:   0
  4 2r: 2.14E-18 2x: 9.24E+05 2u: 2.00E-04 ir: 1.95E-18 iu: 1.67E-04 rsn: rtol
 Step     20 Time=  8.18800E-02 Dt=  8.33333E-03 [hour] snes_conv_reason:    3
  newton =   4 [      79] linear =     4 [        79] cuts =  0 [   0]
  --> max chng: dpmx=   8.6719E+02

== RICHARDS FLOW ===============================================================
  0 2r: 1.40E-05 2x: 0.00E+00 2u: 0.00E+00 ir: 1.10E-05 iu: 0.00E+00 rsn:   0
  1 2r: 1.71E-07 2x: 9.24E+05 2u: 1.75E+02 ir: 1.68E-07 iu: 1.39E+02 rsn:   0
  2 2r: 3.60E-11 2x: 9.24E+05 2u: 1.97E+00 ir: 3.58E-11 iu: 1.93E+00 rsn:   0
  3 2r: 2.40E-18 2x: 9.24E+05 2u: 4.07E-04 ir: 1.95E-18 iu: 4.01E-04 rsn: rtol
 Step     21 Time=  8.33333E-02 Dt=  1.45333E-03 [hour] snes_conv_reason:    3
  newton =   3 [      82] linear =     3 [        82] cuts =  0 [   0]
  --> max chng: dpmx=   1.3668E+02

== RICHARDS FLOW ===============================================================
  0 2r: 1.38E-05 2x: 0.00E+00 2u: 0.00E+00 ir: 1.09E-05 iu: 0.00E+00 rsn:   0
  1 2r: 1.45E-06 2x: 9.24E+05 2u: 1.04E+03 ir: 1.42E-06 iu: 7.21E+02 rsn:   0
  2 2r: 1.56E-08 2x: 9.24E+05 2u: 5.75E+01 ir: 1.39E-08 iu: 5.62E+01 rsn:   0
  3 2r: 1.37E-12 2x: 9.24E+05 2u: 6.83E-01 ir: 1.23E-12 iu: 5.00E-01 rsn:   0
  4 2r: 6.07E-19 2x: 9.24E+05 2u: 6.11E-05 ir: 4.34E-19 iu: 4.58E-05 rsn: rtol
 Step     22 Time=  9.16667E-02 Dt=  8.33333E-03 [hour] snes_conv_reason:    3
  newton =   4 [      86] linear =     4 [        86] cuts =  0 [   0]
  --> max chng: dpmx=   6.9213E+02

== RICHARDS FLOW ===============================================================
  0 2r: 1.29E-05 2x: 0.00E+00 2u: 0.00E+00 ir: 1.00E-05 iu: 0.00E+00 rsn:   0
  1 2r: 1.05E-06 2x: 9.25E+05 2u: 1.03E+03 ir: 1.02E-06 iu: 8.28E+02 rsn:   0
  2 2r: 6.19E-09 2x: 9.25E+05 2u: 5.17E+01 ir: 5.92E-09 iu: 3.63E+01 rsn:   0
  3 2r: 2.33E-13 2x: 9.25E+05 2u: 1.91E-01 ir: 1.98E-13 iu: 1.85E-01 rsn:   0
  4 2r: 3.86E-18 2x: 9.25E+05 2u: 9.41E-06 ir: 2.87E-18 iu: 7.18E-06 rsn: rtol
 Step     23 Time=  1.00000E-01 Dt=  8.33333E-03 [hour] snes_conv_reason:    3
  newton =   4 [      90] linear =     4 [        90] cuts =  0 [   0]
  --> max chng: dpmx=   7.9131E+02

== RICHARDS FLOW ===============================================================
  0 2r: 1.22E-05 2x: 0.00E+00 2u: 0.00E+00 ir: 8.89E-06 iu: 0.00E+00 rsn:   0
  1 2r: 8.69E-07 2x: 9.25E+05 2u: 9.92E+02 ir: 6.68E-07 iu: 8.56E+02 rsn:   0
  2 2r: 3.70E-09 2x: 9.25E+05 2u: 5.82E+01 ir: 3.21E-09 iu: 5.24E+01 rsn:   0
  3 2r: 1.10E-13 2x: 9.25E+05 2u: 2.98E-01 ir: 1.08E-13 iu: 2.75E-01 rsn: rtol
 Step     24 Time=  1.08333E-01 Dt=  8.33333E-03 [hour] snes_conv_reason:    3
  newton =   3 [      93] linear =     3 [        93] cuts =  0 [   0]
  --> max chng: dpmx=   8.0283E+02

== RICHARDS FLOW ===============================================================
  0 2r: 1.17E-05 2x: 0.00E+00 2u: 0.00E+00 ir: 7.77E-06 iu: 0.00E+00 rsn:   0
  1 2r: 1.03E-06 2x: 9.25E+05 2u: 9.28E+02 ir: 7.48E-07 iu: 8.03E+02 rsn:   0
  2 2r: 6.98E-08 2x: 9.25E+05 2u: 5.76E+01 ir: 4.92E-08 iu: 5.44E+01 rsn:   0
  3 2r: 1.16E-09 2x: 9.25E+05 2u: 4.32E-01 ir: 8.20E-10 iu: 3.20E-01 rsn:   0
  4 2r: 2.98E-13 2x: 9.25E+05 2u: 4.12E-03 ir: 2.11E-13 iu: 2.63E-03 rsn: stol
 Step     25 Time=  1.16667E-01 Dt=  8.33333E-03 [hour] snes_conv_reason:    4
  newton =   4 [      97] linear =     4 [        97] cuts =  0 [   0]
  --> max chng: dpmx=   7.4840E+02

== RICHARDS FLOW ===============================================================
  0 2r: 1.13E-05 2x: 0.00E+00 2u: 0.00E+00 ir: 8.11E-06 iu: 0.00E+00 rsn:   0
  1 2r: 1.55E-06 2x: 9.25E+05 2u: 8.69E+02 ir: 9.14E-07 iu: 7.09E+02 rsn:   0
  2 2r: 7.46E-09 2x: 9.25E+05 2u: 5.22E+01 ir: 6.45E-09 iu: 4.95E+01 rsn:   0
  3 2r: 2.96E-13 2x: 9.25E+05 2u: 3.94E-01 ir: 2.76E-13 iu: 3.30E-01 rsn:   0
  4 2r: 1.02E-18 2x: 9.25E+05 2u: 1.70E-05 ir: 8.13E-19 iu: 1.45E-05 rsn: rtol
 Step     26 Time=  1.25000E-01 Dt=  8.33333E-03 [hour] snes_conv_reason:    3
  newton =   4 [     101] linear =     4 [       101] cuts =  0 [   0]
  --> max chng: dpmx=   6.5922E+02

== RICHARDS FLOW ===============================================================
  0 2r: 1.09E-05 2x: 0.00E+00 2u: 0.00E+00 ir: 8.14E-06 iu: 0.00E+00 rsn:   0
  1 2r: 7.88E-07 2x: 9.25E+05 2u: 8.29E+02 ir: 7.66E-07 iu: 5.99E+02 rsn:   0
  2 2r: 5.11E-09 2x: 9.25E+05 2u: 3.82E+01 ir: 4.68E-09 iu: 3.74E+01 rsn:   0
  3 2r: 1.59E-13 2x: 9.25E+05 2u: 2.52E-01 ir: 1.46E-13 iu: 2.04E-01 rsn:   0
  4 2r: 2.16E-18 2x: 9.25E+05 2u: 8.12E-06 ir: 1.52E-18 iu: 6.53E-06 rsn: rtol
 Step     27 Time=  1.33333E-01 Dt=  8.33333E-03 [hour] snes_conv_reason:    3
  newton =   4 [     105] linear =     4 [       105] cuts =  0 [   0]
  --> max chng: dpmx=   5.6109E+02

== RICHARDS FLOW ===============================================================
  0 2r: 1.03E-05 2x: 0.00E+00 2u: 0.00E+00 ir: 7.79E-06 iu: 0.00E+00 rsn:   0
  1 2r: 6.45E-07 2x: 9.25E+05 2u: 8.16E+02 ir: 6.36E-07 iu: 6.04E+02 rsn:   0
  2 2r: 3.03E-09 2x: 9.25E+05 2u: 3.26E+01 ir: 2.84E-09 iu: 2.73E+01 rsn:   0
  3 2r: 5.71E-14 2x: 9.25E+05 2u: 1.19E-01 ir: 5.03E-14 iu: 1.08E-01 rsn: rtol
 Step     28 Time=  1.41667E-01 Dt=  8.33333E-03 [hour] snes_conv_reason:    3
  newton =   3 [     108] linear =     3 [       108] cuts =  0 [   0]
  --> max chng: dpmx=   5.8734E+02

== RICHARDS FLOW ===============================================================
  0 2r: 9.91E-06 2x: 0.00E+00 2u: 0.00E+00 ir: 7.23E-06 iu: 0.00E+00 rsn:   0
  1 2r: 5.34E-07 2x: 9.25E+05 2u: 8.03E+02 ir: 4.87E-07 iu: 6.55E+02 rsn:   0
  2 2r: 1.43E-09 2x: 9.25E+05 2u: 3.42E+01 ir: 1.37E-09 iu: 2.76E+01 rsn:   0
  3 2r: 9.38E-15 2x: 9.25E+05 2u: 7.21E-02 ir: 9.15E-15 iu: 4.96E-02 rsn: rtol
 Step     29 Time=  1.50000E-01 Dt=  8.33333E-03 [hour] snes_conv_reason:    3
  newton =   3 [     111] linear =     3 [       111] cuts =  0 [   0]
  --> max chng: dpmx=   6.2709E+02

== RICHARDS FLOW ===============================================================
  0 2r: 9.57E-06 2x: 0.00E+00 2u: 0.00E+00 ir: 6.60E-06 iu: 0.00E+00 rsn:   0
  1 2r: 4.99E-07 2x: 9.26E+05 2u: 7.76E+02 ir: 3.54E-07 iu: 6.57E+02 rsn:   0
  2 2r: 1.48E-09 2x: 9.26E+05 2u: 3.65E+01 ir: 1.34E-09 iu: 3.32E+01 rsn:   0
  3 2r: 1.83E-14 2x: 9.26E+05 2u: 1.21E-01 ir: 1.79E-14 iu: 1.13E-01 rsn: rtol
 Step     30 Time=  1.58333E-01 Dt=  8.33333E-03 [hour] snes_conv_reason:    3
  newton =   3 [     114] linear =     3 [       114] cuts =  0 [   0]
  --> max chng: dpmx=   6.2406E+02

== RICHARDS FLOW ===============================================================
  0 2r: 9.29E-06 2x: 0.00E+00 2u: 0.00E+00 ir: 5.98E-06 iu: 0.00E+00 rsn:   0
  1 2r: 5.06E-07 2x: 9.26E+05 2u: 7.37E+02 ir: 4.30E-07 iu: 6.22E+02 rsn:   0
  2 2r: 2.02E-09 2x: 9.26E+05 2u: 3.55E+01 ir: 1.94E-09 iu: 3.35E+01 rsn:   0
  3 2r: 3.16E-14 2x: 9.26E+05 2u: 1.44E-01 ir: 3.03E-14 iu: 1.33E-01 rsn: rtol
 Step     31 Time=  1.66667E-01 Dt=  8.33333E-03 [hour] snes_conv_reason:    3
  newton =   3 [     117] linear =     3 [       117] cuts =  0 [   0]
  --> max chng: dpmx=   5.8882E+02

== RICHARDS FLOW ===============================================================
  0 2r: 9.02E-06 2x: 0.00E+00 2u: 0.00E+00 ir: 6.27E-06 iu: 0.00E+00 rsn:   0
  1 2r: 5.01E-07 2x: 9.26E+05 2u: 7.01E+02 ir: 4.61E-07 iu: 5.65E+02 rsn:   0
  2 2r: 2.13E-09 2x: 9.26E+05 2u: 3.13E+01 ir: 2.02E-09 iu: 3.03E+01 rsn:   0
  3 2r: 3.18E-14 2x: 9.26E+05 2u: 1.33E-01 ir: 3.01E-14 iu: 1.18E-01 rsn: rtol
 Step     32 Time=  1.75000E-01 Dt=  8.33333E-03 [hour] snes_conv_reason:    3
  newton =   3 [     120] linear =     3 [       120] cuts =  0 [   0]
  --> max chng: dpmx=   5.3494E+02

== RICHARDS FLOW ===============================================================
  0 2r: 8.73E-06 2x: 0.00E+00 2u: 0.00E+00 ir: 6.31E-06 iu: 0.00E+00 rsn:   0
  1 2r: 4.64E-07 2x: 9.26E+05 2u: 6.78E+02 ir: 4.44E-07 iu: 5.00E+02 rsn:   0
  2 2r: 1.83E-09 2x: 9.26E+05 2u: 2.60E+01 ir: 1.71E-09 iu: 2.53E+01 rsn:   0
  3 2r: 2.23E-14 2x: 9.26E+05 2u: 1.01E-01 ir: 2.07E-14 iu: 8.71E-02 rsn: rtol
 Step     33 Time=  1.83333E-01 Dt=  8.33333E-03 [hour] snes_conv_reason:    3
  newton =   3 [     123] linear =     3 [       123] cuts =  0 [   0]
  --> max chng: dpmx=   4.7430E+02

== RICHARDS FLOW ===============================================================
  0 2r: 8.44E-06 2x: 0.00E+00 2u: 0.00E+00 ir: 6.15E-06 iu: 0.00E+00 rsn:   0
  1 2r: 4.06E-07 2x: 9.26E+05 2u: 6.67E+02 ir: 3.96E-07 iu: 4.57E+02 rsn:   0
  2 2r: 1.32E-09 2x: 9.26E+05 2u: 2.24E+01 ir: 1.24E-09 iu: 2.02E+01 rsn:   0
  3 2r: 1.14E-14 2x: 9.26E+05 2u: 6.20E-02 ir: 1.04E-14 iu: 5.60E-02 rsn: rtol
 Step     34 Time=  1.91667E-01 Dt=  8.33333E-03 [hour] snes_conv_reason:    3
  newton =   3 [     126] linear =     3 [       126] cuts =  0 [   0]
  --> max chng: dpmx=   4.4818E+02

== RICHARDS FLOW ===============================================================
  0 2r: 8.18E-06 2x: 0.00E+00 2u: 0.00E+00 ir: 5.87E-06 iu: 0.00E+00 rsn:   0
  1 2r: 3.52E-07 2x: 9.26E+05 2u: 6.61E+02 ir: 3.33E-07 iu: 5.04E+02 rsn:   0
  2 2r: 8.03E-10 2x: 9.26E+05 2u: 2.19E+01 ir: 7.90E-10 iu: 1.56E+01 rsn:   0
  3 2r: 4.20E-15 2x: 9.26E+05 2u: 3.32E-02 ir: 3.75E-15 iu: 3.26E-02 rsn: rtol
 Step     35 Time=  2.00000E-01 Dt=  8.33333E-03 [hour] snes_conv_reason:    3
  newton =   3 [     129] linear =     3 [       129] cuts =  0 [   0]
  --> max chng: dpmx=   4.8939E+02

== RICHARDS FLOW ===============================================================
  0 2r: 7.97E-06 2x: 0.00E+00 2u: 0.00E+00 ir: 5.53E-06 iu: 0.00E+00 rsn:   0
  1 2r: 3.20E-07 2x: 9.26E+05 2u: 6.50E+02 ir: 2.70E-07 iu: 5.26E+02 rsn:   0
  2 2r: 5.23E-10 2x: 9.26E+05 2u: 2.32E+01 ir: 4.40E-10 iu: 1.94E+01 rsn:   0
  3 2r: 1.11E-15 2x: 9.26E+05 2u: 3.68E-02 ir: 8.16E-16 iu: 3.08E-02 rsn: rtol
 Step     36 Time=  2.08333E-01 Dt=  8.33333E-03 [hour] snes_conv_reason:    3
  newton =   3 [     132] linear =     3 [       132] cuts =  0 [   0]
  --> max chng: dpmx=   5.0662E+02

== RICHARDS FLOW ===============================================================
  0 2r: 7.79E-06 2x: 0.00E+00 2u: 0.00E+00 ir: 5.17E-06 iu: 0.00E+00 rsn:   0
  1 2r: 3.13E-07 2x: 9.27E+05 2u: 6.32E+02 ir: 2.22E-07 iu: 5.24E+02 rsn:   0
  2 2r: 6.12E-10 2x: 9.27E+05 2u: 2.39E+01 ir: 5.55E-10 iu: 2.17E+01 rsn:   0
  3 2r: 3.16E-15 2x: 9.27E+05 2u: 5.14E-02 ir: 3.09E-15 iu: 4.82E-02 rsn: rtol
 Step     37 Time=  2.16667E-01 Dt=  8.33333E-03 [hour] snes_conv_reason:    3
  newton =   3 [     135] linear =     3 [       135] cuts =  0 [   0]
  --> max chng: dpmx=   5.0180E+02

== RICHARDS FLOW ===============================================================
  0 2r: 7.64E-06 2x: 0.00E+00 2u: 0.00E+00 ir: 4.82E-06 iu: 0.00E+00 rsn:   0
  1 2r: 3.16E-07 2x: 9.27E+05 2u: 6.09E+02 ir: 2.62E-07 iu: 5.02E+02 rsn:   0
  2 2r: 7.65E-10 2x: 9.27E+05 2u: 2.32E+01 ir: 7.33E-10 iu: 2.18E+01 rsn:   0
  3 2r: 4.78E-15 2x: 9.27E+05 2u: 5.79E-02 ir: 4.62E-15 iu: 5.40E-02 rsn: rtol
 Step     38 Time=  2.25000E-01 Dt=  8.33333E-03 [hour] snes_conv_reason:    3
  newton =   3 [     138] linear =     3 [       138] cuts =  0 [   0]
  --> max chng: dpmx=   4.7996E+02

== RICHARDS FLOW ===============================================================
  0 2r: 7.48E-06 2x: 0.00E+00 2u: 0.00E+00 ir: 4.99E-06 iu: 0.00E+00 rsn:   0
  1 2r: 3.12E-07 2x: 9.27E+05 2u: 5.88E+02 ir: 2.80E-07 iu: 4.68E+02 rsn:   0
  2 2r: 8.16E-10 2x: 9.27E+05 2u: 2.11E+01 ir: 7.80E-10 iu: 2.03E+01 rsn:   0
  3 2r: 5.02E-15 2x: 9.27E+05 2u: 5.51E-02 ir: 4.80E-15 iu: 5.04E-02 rsn: rtol
 Step     39 Time=  2.33333E-01 Dt=  8.33333E-03 [hour] snes_conv_reason:    3
  newton =   3 [     141] linear =     3 [       141] cuts =  0 [   0]
  --> max chng: dpmx=   4.4713E+02

== RICHARDS FLOW ===============================================================
  0 2r: 7.31E-06 2x: 0.00E+00 2u: 0.00E+00 ir: 5.06E-06 iu: 0.00E+00 rsn:   0
  1 2r: 2.97E-07 2x: 9.27E+05 2u: 5.73E+02 ir: 2.78E-07 iu: 4.27E+02 rsn:   0
  2 2r: 7.56E-10 2x: 9.27E+05 2u: 1.86E+01 ir: 7.16E-10 iu: 1.79E+01 rsn:   0
  3 2r: 4.08E-15 2x: 9.27E+05 2u: 4.57E-02 ir: 3.84E-15 iu: 4.12E-02 rsn: rtol
 Step     40 Time=  2.41667E-01 Dt=  8.33333E-03 [hour] snes_conv_reason:    3
  newton =   3 [     144] linear =     3 [       144] cuts =  0 [   0]
  --> max chng: dpmx=   4.0892E+02

== RICHARDS FLOW ===============================================================
  0 2r: 7.14E-06 2x: 0.00E+00 2u: 0.00E+00 ir: 5.01E-06 iu: 0.00E+00 rsn:   0
  1 2r: 2.73E-07 2x: 9.27E+05 2u: 5.65E+02 ir: 2.60E-07 iu: 3.85E+02 rsn:   0
  2 2r: 6.18E-10 2x: 9.27E+05 2u: 1.64E+01 ir: 5.88E-10 iu: 1.52E+01 rsn:   0
  3 2r: 2.67E-15 2x: 9.27E+05 2u: 3.31E-02 ir: 2.47E-15 iu: 3.04E-02 rsn: rtol
 Step     41 Time=  2.50000E-01 Dt=  8.33333E-03 [hour] snes_conv_reason:    3
  newton =   3 [     147] linear =     3 [       147] cuts =  0 [   0]
  --> max chng: dpmx=   3.6965E+02

== RICHARDS FLOW ===============================================================
  0 2r: 6.98E-06 2x: 0.00E+00 2u: 0.00E+00 ir: 4.88E-06 iu: 0.00E+00 rsn:   0
  1 2r: 2.46E-07 2x: 9.27E+05 2u: 5.60E+02 ir: 2.34E-07 iu: 3.98E+02 rsn:   0
  2 2r: 4.50E-10 2x: 9.27E+05 2u: 1.55E+01 ir: 4.39E-10 iu: 1.26E+01 rsn:   0
  3 2r: 1.42E-15 2x: 9.27E+05 2u: 2.11E-02 ir: 1.29E-15 iu: 2.08E-02 rsn: rtol
 Step     42 Time=  2.58333E-01 Dt=  8.33333E-03 [hour] snes_conv_reason:    3
  newton =   3 [     150] linear =     3 [       150] cuts =  0 [   0]
  --> max chng: dpmx=   3.8939E+02

== RICHARDS FLOW ===============================================================
  0 2r: 6.84E-06 2x: 0.00E+00 2u: 0.00E+00 ir: 4.69E-06 iu: 0.00E+00 rsn:   0
  1 2r: 2.26E-07 2x: 9.27E+05 2u: 5.55E+02 ir: 2.03E-07 iu: 4.24E+02 rsn:   0
  2 2r: 3.05E-10 2x: 9.27E+05 2u: 1.58E+01 ir: 3.01E-10 iu: 1.16E+01 rsn:   0
  3 2r: 5.64E-16 2x: 9.27E+05 2u: 1.56E-02 ir: 5.34E-16 iu: 1.35E-02 rsn: rtol
 Step     43 Time=  2.66667E-01 Dt=  8.33333E-03 [hour] snes_conv_reason:    3
  newton =   3 [     153] linear =     3 [       153] cuts =  0 [   0]
  --> max chng: dpmx=   4.1253E+02

== RICHARDS FLOW ===============================================================
  0 2r: 6.72E-06 2x: 0.00E+00 2u: 0.00E+00 ir: 4.48E-06 iu: 0.00E+00 rsn:   0
  1 2r: 2.15E-07 2x: 9.27E+05 2u: 5.47E+02 ir: 1.73E-07 iu: 4.36E+02 rsn:   0
  2 2r: 2.48E-10 2x: 9.27E+05 2u: 1.64E+01 ir: 1.91E-10 iu: 1.39E+01 rsn:   0
  3 2r: 2.98E-16 2x: 9.27E+05 2u: 1.92E-02 ir: 2.51E-16 iu: 1.66E-02 rsn: rtol
 Step     44 Time=  2.75000E-01 Dt=  8.33333E-03 [hour] snes_conv_reason:    3
  newton =   3 [     156] linear =     3 [       156] cuts =  0 [   0]
  --> max chng: dpmx=   4.2168E+02

== RICHARDS FLOW ===============================================================
  0 2r: 6.62E-06 2x: 0.00E+00 2u: 0.00E+00 ir: 4.27E-06 iu: 0.00E+00 rsn:   0
  1 2r: 2.14E-07 2x: 9.27E+05 2u: 5.35E+02 ir: 1.51E-07 iu: 4.33E+02 rsn:   0
  2 2r: 2.84E-10 2x: 9.27E+05 2u: 1.67E+01 ir: 2.53E-10 iu: 1.50E+01 rsn:   0
  3 2r: 6.71E-16 2x: 9.27E+05 2u: 2.43E-02 ir: 6.57E-16 iu: 2.27E-02 rsn: rtol
 Step     45 Time=  2.83333E-01 Dt=  8.33333E-03 [hour] snes_conv_reason:    3
  newton =   3 [     159] linear =     3 [       159] cuts =  0 [   0]
  --> max chng: dpmx=   4.1814E+02

== RICHARDS FLOW ===============================================================
  0 2r: 6.52E-06 2x: 0.00E+00 2u: 0.00E+00 ir: 4.05E-06 iu: 0.00E+00 rsn:   0
  1 2r: 2.14E-07 2x: 9.28E+05 2u: 5.21E+02 ir: 1.73E-07 iu: 4.20E+02 rsn:   0
  2 2r: 3.38E-10 2x: 9.28E+05 2u: 1.62E+01 ir: 3.21E-10 iu: 1.51E+01 rsn:   0
  3 2r: 9.68E-16 2x: 9.28E+05 2u: 2.68E-02 ir: 9.39E-16 iu: 2.52E-02 rsn: rtol
 Step     46 Time=  2.91667E-01 Dt=  8.33333E-03 [hour] snes_conv_reason:    3
  newton =   3 [     162] linear =     3 [       162] cuts =  0 [   0]
  --> max chng: dpmx=   4.0443E+02

== RICHARDS FLOW ===============================================================
  0 2r: 6.42E-06 2x: 0.00E+00 2u: 0.00E+00 ir: 4.12E-06 iu: 0.00E+00 rsn:   0
  1 2r: 2.13E-07 2x: 9.28E+05 2u: 5.08E+02 ir: 1.85E-07 iu: 3.98E+02 rsn:   0
  2 2r: 3.63E-10 2x: 9.28E+05 2u: 1.52E+01 ir: 3.48E-10 iu: 1.45E+01 rsn:   0
  3 2r: 1.06E-15 2x: 9.28E+05 2u: 2.62E-02 ir: 1.02E-15 iu: 2.44E-02 rsn: rtol
 Step     47 Time=  3.00000E-01 Dt=  8.33333E-03 [hour] snes_conv_reason:    3
  newton =   3 [     165] linear =     3 [       165] cuts =  0 [   0]
  --> max chng: dpmx=   3.8355E+02

== RICHARDS FLOW ===============================================================
  0 2r: 6.32E-06 2x: 0.00E+00 2u: 0.00E+00 ir: 4.19E-06 iu: 0.00E+00 rsn:   0
  1 2r: 2.06E-07 2x: 9.28E+05 2u: 4.98E+02 ir: 1.87E-07 iu: 3.72E+02 rsn:   0
  2 2r: 3.53E-10 2x: 9.28E+05 2u: 1.38E+01 ir: 3.38E-10 iu: 1.32E+01 rsn:   0
  3 2r: 9.52E-16 2x: 9.28E+05 2u: 2.32E-02 ir: 9.06E-16 iu: 2.14E-02 rsn: rtol
 Step     48 Time=  3.08333E-01 Dt=  8.33333E-03 [hour] snes_conv_reason:    3
  newton =   3 [     168] linear =     3 [       168] cuts =  0 [   0]
  --> max chng: dpmx=   3.5843E+02

== RICHARDS FLOW ===============================================================
  0 2r: 6.21E-06 2x: 0.00E+00 2u: 0.00E+00 ir: 4.19E-06 iu: 0.00E+00 rsn:   0
  1 2r: 1.94E-07 2x: 9.28E+05 2u: 4.92E+02 ir: 1.81E-07 iu: 3.43E+02 rsn:   0
  2 2r: 3.13E-10 2x: 9.28E+05 2u: 1.26E+01 ir: 3.00E-10 iu: 1.17E+01 rsn:   0
  3 2r: 7.27E-16 2x: 9.28E+05 2u: 1.86E-02 ir: 6.82E-16 iu: 1.73E-02 rsn: rtol
 Step     49 Time=  3.16667E-01 Dt=  8.33333E-03 [hour] snes_conv_reason:    3
  newton =   3 [     171] linear =     3 [       171] cuts =  0 [   0]
  --> max chng: dpmx=   3.3156E+02

== RICHARDS FLOW ===============================================================
  0 2r: 6.11E-06 2x: 0.00E+00 2u: 0.00E+00 ir: 4.13E-06 iu: 0.00E+00 rsn:   0
  1 2r: 1.81E-07 2x: 9.28E+05 2u: 4.88E+02 ir: 1.69E-07 iu: 3.24E+02 rsn:   0
  2 2r: 2.55E-10 2x: 9.28E+05 2u: 1.18E+01 ir: 2.48E-10 iu: 1.02E+01 rsn:   0
  3 2r: 4.78E-16 2x: 9.28E+05 2u: 1.36E-02 ir: 4.42E-16 iu: 1.32E-02 rsn: rtol
 Step     50 Time=  3.25000E-01 Dt=  8.33333E-03 [hour] snes_conv_reason:    3
  newton =   3 [     174] linear =     3 [       174] cuts =  0 [   0]
  --> max chng: dpmx=   3.1868E+02

== RICHARDS FLOW ===============================================================
  0 2r: 6.02E-06 2x: 0.00E+00 2u: 0.00E+00 ir: 4.04E-06 iu: 0.00E+00 rsn:   0
  1 2r: 1.68E-07 2x: 9.28E+05 2u: 4.85E+02 ir: 1.54E-07 iu: 3.49E+02 rsn:   0
  2 2r: 1.93E-10 2x: 9.28E+05 2u: 1.17E+01 ir: 1.92E-10 iu: 8.71E+00 rsn:   0
  3 2r: 2.68E-16 2x: 9.28E+05 2u: 9.70E-03 ir: 2.47E-16 iu: 9.56E-03 rsn: rtol
 Step     51 Time=  3.33333E-01 Dt=  8.33333E-03 [hour] snes_conv_reason:    3
  newton =   3 [     177] linear =     3 [       177] cuts =  0 [   0]
  --> max chng: dpmx=   3.4161E+02

== RICHARDS FLOW ===============================================================
  0 2r: 5.93E-06 2x: 0.00E+00 2u: 0.00E+00 ir: 3.92E-06 iu: 0.00E+00 rsn:   0
  1 2r: 1.60E-07 2x: 9.28E+05 2u: 4.81E+02 ir: 1.38E-07 iu: 3.65E+02 rsn:   0
  2 2r: 1.47E-10 2x: 9.28E+05 2u: 1.19E+01 ir: 1.41E-10 iu: 9.12E+00 rsn:   0
  3 2r: 1.17E-16 2x: 9.28E+05 2u: 8.96E-03 ir: 1.16E-16 iu: 6.74E-03 rsn: rtol
 Step     52 Time=  3.41667E-01 Dt=  8.33333E-03 [hour] snes_conv_reason:    3
  newton =   3 [     180] linear =     3 [       180] cuts =  0 [   0]
  --> max chng: dpmx=   3.5578E+02

== RICHARDS FLOW ===============================================================
  0 2r: 5.86E-06 2x: 0.00E+00 2u: 0.00E+00 ir: 3.79E-06 iu: 0.00E+00 rsn:   0
  1 2r: 1.56E-07 2x: 9.28E+05 2u: 4.75E+02 ir: 1.22E-07 iu: 3.72E+02 rsn:   0
  2 2r: 1.34E-10 2x: 9.28E+05 2u: 1.23E+01 ir: 9.84E-11 iu: 1.04E+01 rsn:   0
  3 2r: 9.63E-17 2x: 9.28E+05 2u: 1.08E-02 ir: 8.51E-17 iu: 9.46E-03 rsn: rtol
 Step     53 Time=  3.50000E-01 Dt=  8.33333E-03 [hour] snes_conv_reason:    3
  newton =   3 [     183] linear =     3 [       183] cuts =  0 [   0]
  --> max chng: dpmx=   3.6116E+02

== RICHARDS FLOW ===============================================================
  0 2r: 5.80E-06 2x: 0.00E+00 2u: 0.00E+00 ir: 3.65E-06 iu: 0.00E+00 rsn:   0
  1 2r: 1.56E-07 2x: 9.28E+05 2u: 4.67E+02 ir: 1.09E-07 iu: 3.70E+02 rsn:   0
  2 2r: 1.50E-10 2x: 9.28E+05 2u: 1.23E+01 ir: 1.31E-10 iu: 1.10E+01 rsn:   0
  3 2r: 1.82E-16 2x: 9.28E+05 2u: 1.29E-02 ir: 1.78E-16 iu: 1.20E-02 rsn: rtol
 Step     54 Time=  3.58333E-01 Dt=  8.33333E-03 [hour] snes_conv_reason:    3
  newton =   3 [     186] linear =     3 [       186] cuts =  0 [   0]
  --> max chng: dpmx=   3.5857E+02

== RICHARDS FLOW ===============================================================
  0 2r: 5.73E-06 2x: 0.00E+00 2u: 0.00E+00 ir: 3.51E-06 iu: 0.00E+00 rsn:   0
  1 2r: 1.56E-07 2x: 9.28E+05 2u: 4.58E+02 ir: 1.23E-07 iu: 3.61E+02 rsn:   0
  2 2r: 1.71E-10 2x: 9.28E+05 2u: 1.21E+01 ir: 1.61E-10 iu: 1.11E+01 rsn:   0
  3 2r: 2.53E-16 2x: 9.28E+05 2u: 1.40E-02 ir: 2.46E-16 iu: 1.32E-02 rsn: rtol
 Step     55 Time=  3.66667E-01 Dt=  8.33333E-03 [hour] snes_conv_reason:    3
  newton =   3 [     189] linear =     3 [       189] cuts =  0 [   0]
  --> max chng: dpmx=   3.4942E+02

== RICHARDS FLOW ===============================================================
  0 2r: 5.67E-06 2x: 0.00E+00 2u: 0.00E+00 ir: 3.50E-06 iu: 0.00E+00 rsn:   0
  1 2r: 1.55E-07 2x: 9.29E+05 2u: 4.50E+02 ir: 1.30E-07 iu: 3.46E+02 rsn:   0
  2 2r: 1.84E-10 2x: 9.29E+05 2u: 1.15E+01 ir: 1.76E-10 iu: 1.08E+01 rsn:   0
  3 2r: 2.84E-16 2x: 9.29E+05 2u: 1.40E-02 ir: 2.74E-16 iu: 1.31E-02 rsn: rtol
 Step     56 Time=  3.75000E-01 Dt=  8.33333E-03 [hour] snes_conv_reason:    3
  newton =   3 [     192] linear =     3 [       192] cuts =  0 [   0]
  --> max chng: dpmx=   3.3538E+02

== RICHARDS FLOW ===============================================================
  0 2r: 5.60E-06 2x: 0.00E+00 2u: 0.00E+00 ir: 3.57E-06 iu: 0.00E+00 rsn:   0
  1 2r: 1.51E-07 2x: 9.29E+05 2u: 4.43E+02 ir: 1.33E-07 iu: 3.28E+02 rsn:   0
  2 2r: 1.84E-10 2x: 9.29E+05 2u: 1.07E+01 ir: 1.77E-10 iu: 1.01E+01 rsn:   0
  3 2r: 2.72E-16 2x: 9.29E+05 2u: 1.28E-02 ir: 2.61E-16 iu: 1.20E-02 rsn: rtol
 Step     57 Time=  3.83333E-01 Dt=  8.33333E-03 [hour] snes_conv_reason:    3
  newton =   3 [     195] linear =     3 [       195] cuts =  0 [   0]
  --> max chng: dpmx=   3.1810E+02

== RICHARDS FLOW ===============================================================
  0 2r: 5.53E-06 2x: 0.00E+00 2u: 0.00E+00 ir: 3.59E-06 iu: 0.00E+00 rsn:   0
  1 2r: 1.45E-07 2x: 9.29E+05 2u: 4.38E+02 ir: 1.31E-07 iu: 3.08E+02 rsn:   0
  2 2r: 1.71E-10 2x: 9.29E+05 2u: 9.93E+00 ir: 1.65E-10 iu: 9.23E+00 rsn:   0
  3 2r: 2.29E-16 2x: 9.29E+05 2u: 1.10E-02 ir: 2.17E-16 iu: 1.03E-02 rsn: rtol
 Step     58 Time=  3.91667E-01 Dt=  8.33333E-03 [hour] snes_conv_reason:    3
  newton =   3 [     198] linear =     3 [       198] cuts =  0 [   0]
  --> max chng: dpmx=   2.9907E+02

== RICHARDS FLOW ===============================================================
  0 2r: 5.46E-06 2x: 0.00E+00 2u: 0.00E+00 ir: 3.58E-06 iu: 0.00E+00 rsn:   0
  1 2r: 1.38E-07 2x: 9.29E+05 2u: 4.35E+02 ir: 1.26E-07 iu: 2.88E+02 rsn:   0
  2 2r: 1.49E-10 2x: 9.29E+05 2u: 9.38E+00 ir: 1.45E-10 iu: 8.28E+00 rsn:   0
  3 2r: 1.72E-16 2x: 9.29E+05 2u: 8.72E-03 ir: 1.61E-16 iu: 8.44E-03 rsn: rtol
 Step     59 Time=  4.00000E-01 Dt=  8.33333E-03 [hour] snes_conv_reason:    3
  newton =   3 [     201] linear =     3 [       201] cuts =  0 [   0]
  --> max chng: dpmx=   2.7950E+02

== RICHARDS FLOW ===============================================================
  0 2r: 5.40E-06 2x: 0.00E+00 2u: 0.00E+00 ir: 3.53E-06 iu: 0.00E+00 rsn:   0
  1 2r: 1.31E-07 2x: 9.29E+05 2u: 4.33E+02 ir: 1.19E-07 iu: 2.95E+02 rsn:   0
  2 2r: 1.23E-10 2x: 9.29E+05 2u: 9.16E+00 ir: 1.22E-10 iu: 7.32E+00 rsn:   0
  3 2r: 1.15E-16 2x: 9.29E+05 2u: 6.65E-03 ir: 1.07E-16 iu: 6.62E-03 rsn: rtol
 Step     60 Time=  4.08333E-01 Dt=  8.33333E-03 [hour] snes_conv_reason:    3
  newton =   3 [     204] linear =     3 [       204] cuts =  0 [   0]
  --> max chng: dpmx=   2.9022E+02

== RICHARDS FLOW ===============================================================
  0 2r: 5.34E-06 2x: 0.00E+00 2u: 0.00E+00 ir: 3.46E-06 iu: 0.00E+00 rsn:   0
  1 2r: 1.25E-07 2x: 9.29E+05 2u: 4.31E+02 ir: 1.10E-07 iu: 3.11E+02 rsn:   0
  2 2r: 9.81E-11 2x: 9.29E+05 2u: 9.23E+00 ir: 9.75E-11 iu: 6.42E+00 rsn:   0
  3 2r: 6.66E-17 2x: 9.29E+05 2u: 5.50E-03 ir: 6.32E-17 iu: 5.05E-03 rsn: rtol
 Step     61 Time=  4.16667E-01 Dt=  8.33333E-03 [hour] snes_conv_reason:    3
  newton =   3 [     207] linear =     3 [       207] cuts =  0 [   0]
  --> max chng: dpmx=   3.0515E+02

== RICHARDS FLOW ===============================================================
  0 2r: 5.29E-06 2x: 0.00E+00 2u: 0.00E+00 ir: 3.38E-06 iu: 0.00E+00 rsn:   0
  1 2r: 1.22E-07 2x: 9.29E+05 2u: 4.28E+02 ir: 1.00E-07 iu: 3.21E+02 rsn:   0
  2 2r: 8.24E-11 2x: 9.29E+05 2u: 9.43E+00 ir: 7.53E-11 iu: 7.38E+00 rsn:   0
  3 2r: 3.42E-17 2x: 9.29E+05 2u: 5.72E-03 ir: 3.29E-17 iu: 4.15E-03 rsn: rtol
 Step     62 Time=  4.25000E-01 Dt=  8.33333E-03 [hour] snes_conv_reason:    3
  newton =   3 [     210] linear =     3 [       210] cuts =  0 [   0]
  --> max chng: dpmx=   3.1406E+02

== RICHARDS FLOW ===============================================================
  0 2r: 5.25E-06 2x: 0.00E+00 2u: 0.00E+00 ir: 3.29E-06 iu: 0.00E+00 rsn:   0
  1 2r: 1.22E-07 2x: 9.29E+05 2u: 4.23E+02 ir: 9.06E-08 iu: 3.25E+02 rsn:   0
  2 2r: 8.48E-11 2x: 9.29E+05 2u: 9.59E+00 ir: 5.61E-11 iu: 8.11E+00 rsn:   0
  3 2r: 8.28E-17 2x: 9.29E+05 2u: 6.72E-03 ir: 5.24E-17 iu: 5.91E-03 rsn: rtol
 Step     63 Time=  4.33333E-01 Dt=  8.33333E-03 [hour] snes_conv_reason:    3
  newton =   3 [     213] linear =     3 [       213] cuts =  0 [   0]
  --> max chng: dpmx=   3.1710E+02

== RICHARDS FLOW ===============================================================
  0 2r: 5.20E-06 2x: 0.00E+00 2u: 0.00E+00 ir: 3.20E-06 iu: 0.00E+00 rsn:   0
  1 2r: 1.32E-07 2x: 9.29E+05 2u: 4.18E+02 ir: 8.41E-08 iu: 3.23E+02 rsn:   0
  2 2r: 8.01E-10 2x: 9.29E+05 2u: 9.59E+00 ir: 5.63E-10 iu: 8.50E+00 rsn:   0
  3 2r: 2.06E-13 2x: 9.29E+05 2u: 8.17E-03 ir: 1.46E-13 iu: 7.12E-03 rsn: stol
 Step     64 Time=  4.41667E-01 Dt=  8.33333E-03 [hour] snes_conv_reason:    4
  newton =   3 [     216] linear =     3 [       216] cuts =  0 [   0]
  --> max chng: dpmx=   3.1484E+02

== RICHARDS FLOW ===============================================================
  0 2r: 5.16E-06 2x: 0.00E+00 2u: 0.00E+00 ir: 3.10E-06 iu: 0.00E+00 rsn:   0
  1 2r: 1.20E-07 2x: 9.29E+05 2u: 4.12E+02 ir: 9.26E-08 iu: 3.17E+02 rsn:   0
  2 2r: 9.87E-11 2x: 9.29E+05 2u: 9.39E+00 ir: 9.17E-11 iu: 8.57E+00 rsn:   0
  3 2r: 8.39E-17 2x: 9.29E+05 2u: 8.21E-03 ir: 8.18E-17 iu: 7.73E-03 rsn: rtol
 Step     65 Time=  4.50000E-01 Dt=  8.33333E-03 [hour] snes_conv_reason:    3
  newton =   3 [     219] linear =     3 [       219] cuts =  0 [   0]
  --> max chng: dpmx=   3.0817E+02

== RICHARDS FLOW ===============================================================
  0 2r: 5.12E-06 2x: 0.00E+00 2u: 0.00E+00 ir: 3.07E-06 iu: 0.00E+00 rsn:   0
  1 2r: 1.19E-07 2x: 9.29E+05 2u: 4.06E+02 ir: 9.81E-08 iu: 3.06E+02 rsn:   0
  2 2r: 1.05E-10 2x: 9.29E+05 2u: 9.02E+00 ir: 1.00E-10 iu: 8.37E+00 rsn:   0
  3 2r: 9.48E-17 2x: 9.29E+05 2u: 8.21E-03 ir: 9.17E-17 iu: 7.74E-03 rsn: rtol
 Step     66 Time=  4.58333E-01 Dt=  8.33333E-03 [hour] snes_conv_reason:    3
  newton =   3 [     222] linear =     3 [       222] cuts =  0 [   0]
  --> max chng: dpmx=   2.9808E+02

== RICHARDS FLOW ===============================================================
  0 2r: 5.08E-06 2x: 0.00E+00 2u: 0.00E+00 ir: 3.13E-06 iu: 0.00E+00 rsn:   0
  1 2r: 1.17E-07 2x: 9.30E+05 2u: 4.02E+02 ir: 1.01E-07 iu: 2.94E+02 rsn:   0
  2 2r: 1.06E-10 2x: 9.30E+05 2u: 8.55E+00 ir: 1.02E-10 iu: 7.97E+00 rsn:   0
  3 2r: 9.40E-17 2x: 9.30E+05 2u: 7.71E-03 ir: 9.03E-17 iu: 7.28E-03 rsn: rtol
 Step     67 Time=  4.66667E-01 Dt=  8.33333E-03 [hour] snes_conv_reason:    3
  newton =   3 [     225] linear =     3 [       225] cuts =  0 [   0]
  --> max chng: dpmx=   2.8557E+02

== RICHARDS FLOW ===============================================================
  0 2r: 5.03E-06 2x: 0.00E+00 2u: 0.00E+00 ir: 3.16E-06 iu: 0.00E+00 rsn:   0
  1 2r: 1.14E-07 2x: 9.30E+05 2u: 3.98E+02 ir: 1.00E-07 iu: 2.79E+02 rsn:   0
  2 2r: 1.02E-10 2x: 9.30E+05 2u: 8.07E+00 ir: 9.81E-11 iu: 7.43E+00 rsn:   0
  3 2r: 8.41E-17 2x: 9.30E+05 2u: 6.84E-03 ir: 8.01E-17 iu: 6.50E-03 rsn: rtol
 Step     68 Time=  4.75000E-01 Dt=  8.33333E-03 [hour] snes_conv_reason:    3
  newton =   3 [     228] linear =     3 [       228] cuts =  0 [   0]
  --> max chng: dpmx=   2.7156E+02

== RICHARDS FLOW ===============================================================
  0 2r: 4.98E-06 2x: 0.00E+00 2u: 0.00E+00 ir: 3.16E-06 iu: 0.00E+00 rsn:   0
  1 2r: 1.10E-07 2x: 9.30E+05 2u: 3.96E+02 ir: 9.80E-08 iu: 2.64E+02 rsn:   0
  2 2r: 9.23E-11 2x: 9.30E+05 2u: 7.71E+00 ir: 8.99E-11 iu: 6.81E+00 rsn:   0
  3 2r: 6.85E-17 2x: 9.30E+05 2u: 5.74E-03 ir: 6.46E-17 iu: 5.57E-03 rsn: rtol
 Step     69 Time=  4.83333E-01 Dt=  8.33333E-03 [hour] snes_conv_reason:    3
  newton =   3 [     231] linear =     3 [       231] cuts =  0 [   0]
  --> max chng: dpmx=   2.5682E+02

== RICHARDS FLOW ===============================================================
  0 2r: 4.93E-06 2x: 0.00E+00 2u: 0.00E+00 ir: 3.14E-06 iu: 0.00E+00 rsn:   0
  1 2r: 1.05E-07 2x: 9.30E+05 2u: 3.94E+02 ir: 9.40E-08 iu: 2.59E+02 rsn:   0
  2 2r: 8.00E-11 2x: 9.30E+05 2u: 7.53E+00 ir: 7.91E-11 iu: 6.17E+00 rsn:   0
  3 2r: 5.08E-17 2x: 9.30E+05 2u: 4.64E-03 ir: 4.75E-17 iu: 4.61E-03 rsn: rtol
 Step     70 Time=  4.91667E-01 Dt=  8.33333E-03 [hour] snes_conv_reason:    3
  newton =   3 [     234] linear =     3 [       234] cuts =  0 [   0]
  --> max chng: dpmx=   2.5477E+02

== RICHARDS FLOW ===============================================================
  0 2r: 4.89E-06 2x: 0.00E+00 2u: 0.00E+00 ir: 3.11E-06 iu: 0.00E+00 rsn:   0
  1 2r: 1.01E-07 2x: 9.30E+05 2u: 3.93E+02 ir: 8.87E-08 iu: 2.73E+02 rsn:   0
  2 2r: 6.71E-11 2x: 9.30E+05 2u: 7.52E+00 ir: 6.70E-11 iu: 5.54E+00 rsn:   0
  3 2r: 3.39E-17 2x: 9.30E+05 2u: 3.84E-03 ir: 3.20E-17 iu: 3.71E-03 rsn: rtol
 Step     71 Time=  5.00000E-01 Dt=  8.33333E-03 [hour] snes_conv_reason:    3
  newton =   3 [     237] linear =     3 [       237] cuts =  0 [   0]
  --> max chng: dpmx=   2.6864E+02

== RICHARDS FLOW ===============================================================
  0 2r: 4.85E-06 2x: 0.00E+00 2u: 0.00E+00 ir: 3.06E-06 iu: 0.00E+00 rsn:   0
  1 2r: 9.87E-08 2x: 9.30E+05 2u: 3.91E+02 ir: 8.28E-08 iu: 2.84E+02 rsn:   0
  2 2r: 5.69E-11 2x: 9.30E+05 2u: 7.63E+00 ir: 5.50E-11 iu: 5.59E+00 rsn:   0
  3 2r: 2.00E-17 2x: 9.30E+05 2u: 3.65E-03 ir: 1.97E-17 iu: 2.93E-03 rsn: rtol
 Step     72 Time=  5.08333E-01 Dt=  8.33333E-03 [hour] snes_conv_reason:    3
  newton =   3 [     240] linear =     3 [       240] cuts =  0 [   0]
  --> max chng: dpmx=   2.7821E+02

== RICHARDS FLOW ===============================================================
  0 2r: 4.81E-06 2x: 0.00E+00 2u: 0.00E+00 ir: 3.00E-06 iu: 0.00E+00 rsn:   0
  1 2r: 9.73E-08 2x: 9.30E+05 2u: 3.88E+02 ir: 7.66E-08 iu: 2.90E+02 rsn:   0
  2 2r: 5.22E-11 2x: 9.30E+05 2u: 7.75E+00 ir: 4.39E-11 iu: 6.23E+00 rsn:   0
  3 2r: 1.34E-17 2x: 9.30E+05 2u: 4.02E-03 ir: 1.07E-17 iu: 3.21E-03 rsn: rtol
 Step     73 Time=  5.16667E-01 Dt=  8.33333E-03 [hour] snes_conv_reason:    3
  newton =   3 [     243] linear =     3 [       243] cuts =  0 [   0]
  --> max chng: dpmx=   2.8338E+02

== RICHARDS FLOW ===============================================================
  0 2r: 4.78E-06 2x: 0.00E+00 2u: 0.00E+00 ir: 2.93E-06 iu: 0.00E+00 rsn:   0
  1 2r: 9.68E-08 2x: 9.30E+05 2u: 3.84E+02 ir: 7.03E-08 iu: 2.91E+02 rsn:   0
  2 2r: 5.36E-11 2x: 9.30E+05 2u: 7.81E+00 ir: 4.01E-11 iu: 6.66E+00 rsn:   0
  3 2r: 1.87E-17 2x: 9.30E+05 2u: 4.59E-03 ir: 1.77E-17 iu: 4.11E-03 rsn: rtol
 Step     74 Time=  5.25000E-01 Dt=  8.33333E-03 [hour] snes_conv_reason:    3
  newton =   3 [     246] linear =     3 [       246] cuts =  0 [   0]
  --> max chng: dpmx=   2.8438E+02

== RICHARDS FLOW ===============================================================
  0 2r: 4.74E-06 2x: 0.00E+00 2u: 0.00E+00 ir: 2.86E-06 iu: 0.00E+00 rsn:   0
  1 2r: 9.68E-08 2x: 9.30E+05 2u: 3.79E+02 ir: 6.89E-08 iu: 2.89E+02 rsn:   0
  2 2r: 5.84E-11 2x: 9.30E+05 2u: 7.76E+00 ir: 5.09E-11 iu: 6.87E+00 rsn:   0
  3 2r: 2.77E-17 2x: 9.30E+05 2u: 5.05E-03 ir: 2.69E-17 iu: 4.70E-03 rsn: rtol
 Step     75 Time=  5.33333E-01 Dt=  8.33333E-03 [hour] snes_conv_reason:    3
  newton =   3 [     249] linear =     3 [       249] cuts =  0 [   0]
  --> max chng: dpmx=   2.8164E+02

== RICHARDS FLOW ===============================================================
  0 2r: 4.71E-06 2x: 0.00E+00 2u: 0.00E+00 ir: 2.78E-06 iu: 0.00E+00 rsn:   0
  1 2r: 9.65E-08 2x: 9.30E+05 2u: 3.75E+02 ir: 7.44E-08 iu: 2.83E+02 rsn:   0
  2 2r: 6.34E-11 2x: 9.30E+05 2u: 7.58E+00 ir: 5.87E-11 iu: 6.88E+00 rsn:   0
  3 2r: 3.46E-17 2x: 9.30E+05 2u: 5.27E-03 ir: 3.36E-17 iu: 4.97E-03 rsn: rtol
 Step     76 Time=  5.41667E-01 Dt=  8.33333E-03 [hour] snes_conv_reason:    3
  newton =   3 [     252] linear =     3 [       252] cuts =  0 [   0]
  --> max chng: dpmx=   2.7579E+02

== RICHARDS FLOW ===============================================================
  0 2r: 4.67E-06 2x: 0.00E+00 2u: 0.00E+00 ir: 2.76E-06 iu: 0.00E+00 rsn:   0
  1 2r: 9.56E-08 2x: 9.30E+05 2u: 3.71E+02 ir: 7.79E-08 iu: 2.74E+02 rsn:   0
  2 2r: 6.63E-11 2x: 9.30E+05 2u: 7.30E+00 ir: 6.29E-11 iu: 6.72E+00 rsn:   0
  3 2r: 3.80E-17 2x: 9.30E+05 2u: 5.21E-03 ir: 3.68E-17 iu: 4.93E-03 rsn: rtol
 Step     77 Time=  5.50000E-01 Dt=  8.33333E-03 [hour] snes_conv_reason:    3
  newton =   3 [     255] linear =     3 [       255] cuts =  0 [   0]
  --> max chng: dpmx=   2.6748E+02

== RICHARDS FLOW ===============================================================
  0 2r: 4.63E-06 2x: 0.00E+00 2u: 0.00E+00 ir: 2.81E-06 iu: 0.00E+00 rsn:   0
  1 2r: 9.39E-08 2x: 9.31E+05 2u: 3.67E+02 ir: 7.95E-08 iu: 2.64E+02 rsn:   0
  2 2r: 6.64E-11 2x: 9.31E+05 2u: 6.97E+00 ir: 6.37E-11 iu: 6.42E+00 rsn:   0
  3 2r: 3.75E-17 2x: 9.31E+05 2u: 4.90E-03 ir: 3.60E-17 iu: 4.66E-03 rsn: rtol
 Step     78 Time=  5.58333E-01 Dt=  8.33333E-03 [hour] snes_conv_reason:    3
  newton =   3 [     258] linear =     3 [       258] cuts =  0 [   0]
  --> max chng: dpmx=   2.5741E+02

== RICHARDS FLOW ===============================================================
  0 2r: 4.59E-06 2x: 0.00E+00 2u: 0.00E+00 ir: 2.83E-06 iu: 0.00E+00 rsn:   0
  1 2r: 9.14E-08 2x: 9.31E+05 2u: 3.65E+02 ir: 7.94E-08 iu: 2.52E+02 rsn:   0
  2 2r: 6.36E-11 2x: 9.31E+05 2u: 6.66E+00 ir: 6.16E-11 iu: 6.03E+00 rsn:   0
  3 2r: 3.39E-17 2x: 9.31E+05 2u: 4.39E-03 ir: 3.24E-17 iu: 4.21E-03 rsn: rtol
 Step     79 Time=  5.66667E-01 Dt=  8.33333E-03 [hour] snes_conv_reason:    3
  newton =   3 [     261] linear =     3 [       261] cuts =  0 [   0]
  --> max chng: dpmx=   2.4619E+02

== RICHARDS FLOW ===============================================================
  0 2r: 4.56E-06 2x: 0.00E+00 2u: 0.00E+00 ir: 2.84E-06 iu: 0.00E+00 rsn:   0
  1 2r: 8.85E-08 2x: 9.31E+05 2u: 3.63E+02 ir: 7.79E-08 iu: 2.40E+02 rsn:   0
  2 2r: 5.85E-11 2x: 9.31E+05 2u: 6.42E+00 ir: 5.72E-11 iu: 5.59E+00 rsn:   0
  3 2r: 2.84E-17 2x: 9.31E+05 2u: 3.76E-03 ir: 2.68E-17 iu: 3.68E-03 rsn: rtol
 Step     80 Time=  5.75000E-01 Dt=  8.33333E-03 [hour] snes_conv_reason:    3
  newton =   3 [     264] linear =     3 [       264] cuts =  0 [   0]
  --> max chng: dpmx=   2.3438E+02

== RICHARDS FLOW ===============================================================
  0 2r: 4.52E-06 2x: 0.00E+00 2u: 0.00E+00 ir: 2.82E-06 iu: 0.00E+00 rsn:   0
  1 2r: 8.55E-08 2x: 9.31E+05 2u: 3.62E+02 ir: 7.52E-08 iu: 2.34E+02 rsn:   0
  2 2r: 5.18E-11 2x: 9.31E+05 2u: 6.29E+00 ir: 5.13E-11 iu: 5.13E+00 rsn:   0
  3 2r: 2.20E-17 2x: 9.31E+05 2u: 3.14E-03 ir: 2.07E-17 iu: 3.12E-03 rsn: rtol
 Step     81 Time=  5.83333E-01 Dt=  8.33333E-03 [hour] snes_conv_reason:    3
  newton =   3 [     267] linear =     3 [       267] cuts =  0 [   0]
  --> max chng: dpmx=   2.3034E+02

== RICHARDS FLOW ===============================================================
  0 2r: 4.49E-06 2x: 0.00E+00 2u: 0.00E+00 ir: 2.80E-06 iu: 0.00E+00 rsn:   0
  1 2r: 8.30E-08 2x: 9.31E+05 2u: 3.61E+02 ir: 7.17E-08 iu: 2.46E+02 rsn:   0
  2 2r: 4.48E-11 2x: 9.31E+05 2u: 6.28E+00 ir: 4.47E-11 iu: 4.67E+00 rsn:   0
  3 2r: 1.57E-17 2x: 9.31E+05 2u: 2.68E-03 ir: 1.47E-17 iu: 2.60E-03 rsn: rtol
 Step     82 Time=  5.91667E-01 Dt=  8.33333E-03 [hour] snes_conv_reason:    3
  newton =   3 [     270] linear =     3 [       270] cuts =  0 [   0]
  --> max chng: dpmx=   2.4204E+02

== RICHARDS FLOW ===============================================================
  0 2r: 4.46E-06 2x: 0.00E+00 2u: 0.00E+00 ir: 2.76E-06 iu: 0.00E+00 rsn:   0
  1 2r: 8.11E-08 2x: 9.31E+05 2u: 3.59E+02 ir: 6.77E-08 iu: 2.55E+02 rsn:   0
  2 2r: 3.89E-11 2x: 9.31E+05 2u: 6.34E+00 ir: 3.79E-11 iu: 4.50E+00 rsn:   0
  3 2r: 1.02E-17 2x: 9.31E+05 2u: 2.52E-03 ir: 9.89E-18 iu: 2.12E-03 rsn: rtol
 Step     83 Time=  6.00000E-01 Dt=  8.33333E-03 [hour] snes_conv_reason:    3
  newton =   3 [     273] linear =     3 [       273] cuts =  0 [   0]
  --> max chng: dpmx=   2.5052E+02

== RICHARDS FLOW ===============================================================
  0 2r: 4.43E-06 2x: 0.00E+00 2u: 0.00E+00 ir: 2.72E-06 iu: 0.00E+00 rsn:   0
  1 2r: 8.00E-08 2x: 9.31E+05 2u: 3.57E+02 ir: 6.35E-08 iu: 2.61E+02 rsn:   0
  2 2r: 3.55E-11 2x: 9.31E+05 2u: 6.42E+00 ir: 3.15E-11 iu: 5.00E+00 rsn:   0
  3 2r: 7.11E-18 2x: 9.31E+05 2u: 2.67E-03 ir: 6.23E-18 iu: 1.99E-03 rsn: rtol
 Step     84 Time=  6.08333E-01 Dt=  8.33333E-03 [hour] snes_conv_reason:    3
  newton =   3 [     276] linear =     3 [       276] cuts =  0 [   0]
  --> max chng: dpmx=   2.5570E+02

== RICHARDS FLOW ===============================================================
  0 2r: 4.40E-06 2x: 0.00E+00 2u: 0.00E+00 ir: 2.67E-06 iu: 0.00E+00 rsn:   0
  1 2r: 7.96E-08 2x: 9.31E+05 2u: 3.54E+02 ir: 5.92E-08 iu: 2.63E+02 rsn:   0
  2 2r: 3.53E-11 2x: 9.31E+05 2u: 6.47E+00 ir: 2.56E-11 iu: 5.36E+00 rsn:   0
  3 2r: 7.24E-18 2x: 9.31E+05 2u: 2.97E-03 ir: 6.07E-18 iu: 2.56E-03 rsn: rtol
 Step     85 Time=  6.16667E-01 Dt=  8.33333E-03 [hour] snes_conv_reason:    3
  newton =   3 [     279] linear =     3 [       279] cuts =  0 [   0]
  --> max chng: dpmx=   2.5767E+02

== RICHARDS FLOW ===============================================================
  0 2r: 4.38E-06 2x: 0.00E+00 2u: 0.00E+00 ir: 2.62E-06 iu: 0.00E+00 rsn:   0
  1 2r: 7.94E-08 2x: 9.31E+05 2u: 3.51E+02 ir: 5.49E-08 iu: 2.62E+02 rsn:   0
  2 2r: 3.74E-11 2x: 9.31E+05 2u: 6.45E+00 ir: 3.05E-11 iu: 5.58E+00 rsn:   0
  3 2r: 1.10E-17 2x: 9.31E+05 2u: 3.26E-03 ir: 1.00E-17 iu: 2.98E-03 rsn: rtol
 Step     86 Time=  6.25000E-01 Dt=  8.33333E-03 [hour] snes_conv_reason:    3
  newton =   3 [     282] linear =     3 [       282] cuts =  0 [   0]
  --> max chng: dpmx=   2.5672E+02

== RICHARDS FLOW ===============================================================
  0 2r: 4.35E-06 2x: 0.00E+00 2u: 0.00E+00 ir: 2.56E-06 iu: 0.00E+00 rsn:   0
  1 2r: 7.93E-08 2x: 9.31E+05 2u: 3.47E+02 ir: 5.82E-08 iu: 2.59E+02 rsn:   0
  2 2r: 4.02E-11 2x: 9.31E+05 2u: 6.36E+00 ir: 3.59E-11 iu: 5.65E+00 rsn:   0
  3 2r: 1.36E-17 2x: 9.31E+05 2u: 3.45E-03 ir: 1.32E-17 iu: 3.23E-03 rsn: rtol
 Step     87 Time=  6.33333E-01 Dt=  8.33333E-03 [hour] snes_conv_reason:    3
  newton =   3 [     285] linear =     3 [       285] cuts =  0 [   0]
  --> max chng: dpmx=   2.5321E+02

== RICHARDS FLOW ===============================================================
  0 2r: 4.32E-06 2x: 0.00E+00 2u: 0.00E+00 ir: 2.51E-06 iu: 0.00E+00 rsn:   0
  1 2r: 7.88E-08 2x: 9.31E+05 2u: 3.44E+02 ir: 6.15E-08 iu: 2.53E+02 rsn:   0
  2 2r: 4.25E-11 2x: 9.31E+05 2u: 6.19E+00 ir: 3.95E-11 iu: 5.60E+00 rsn:   0
  3 2r: 1.61E-17 2x: 9.31E+05 2u: 3.50E-03 ir: 1.52E-17 iu: 3.30E-03 rsn: rtol
 Step     88 Time=  6.41667E-01 Dt=  8.33333E-03 [hour] snes_conv_reason:    3
  newton =   3 [     288] linear =     3 [       288] cuts =  0 [   0]
  --> max chng: dpmx=   2.4760E+02

== RICHARDS FLOW ===============================================================
  0 2r: 4.30E-06 2x: 0.00E+00 2u: 0.00E+00 ir: 2.51E-06 iu: 0.00E+00 rsn:   0
  1 2r: 7.79E-08 2x: 9.31E+05 2u: 3.41E+02 ir: 6.35E-08 iu: 2.46E+02 rsn:   0
  2 2r: 4.35E-11 2x: 9.31E+05 2u: 5.97E+00 ir: 4.13E-11 iu: 5.44E+00 rsn:   0
  3 2r: 1.66E-17 2x: 9.31E+05 2u: 3.40E-03 ir: 1.58E-17 iu: 3.23E-03 rsn: rtol
 Step     89 Time=  6.50000E-01 Dt=  8.33333E-03 [hour] snes_conv_reason:    3
  newton =   3 [     291] linear =     3 [       291] cuts =  0 [   0]
  --> max chng: dpmx=   2.4037E+02

== RICHARDS FLOW ===============================================================
  0 2r: 4.27E-06 2x: 0.00E+00 2u: 0.00E+00 ir: 2.55E-06 iu: 0.00E+00 rsn:   0
  1 2r: 7.65E-08 2x: 9.32E+05 2u: 3.39E+02 ir: 6.43E-08 iu: 2.37E+02 rsn:   0
  2 2r: 4.30E-11 2x: 9.32E+05 2u: 5.75E+00 ir: 4.13E-11 iu: 5.20E+00 rsn:   0
  3 2r: 1.60E-17 2x: 9.32E+05 2u: 3.16E-03 ir: 1.53E-17 iu: 3.03E-03 rsn: rtol
 Step     90 Time=  6.58333E-01 Dt=  8.33333E-03 [hour] snes_conv_reason:    3
  newton =   3 [     294] linear =     3 [       294] cuts =  0 [   0]
  --> max chng: dpmx=   2.3196E+02

== RICHARDS FLOW ===============================================================
  0 2r: 4.24E-06 2x: 0.00E+00 2u: 0.00E+00 ir: 2.56E-06 iu: 0.00E+00 rsn:   0
  1 2r: 7.47E-08 2x: 9.32E+05 2u: 3.37E+02 ir: 6.40E-08 iu: 2.28E+02 rsn:   0
  2 2r: 4.10E-11 2x: 9.32E+05 2u: 5.55E+00 ir: 3.98E-11 iu: 4.91E+00 rsn:   0
  3 2r: 1.42E-17 2x: 9.32E+05 2u: 2.84E-03 ir: 1.36E-17 iu: 2.76E-03 rsn: rtol
 Step     91 Time=  6.66667E-01 Dt=  8.33333E-03 [hour] snes_conv_reason:    3
  newton =   3 [     297] linear =     3 [       297] cuts =  0 [   0]
  --> max chng: dpmx=   2.2281E+02

== RICHARDS FLOW ===============================================================
  0 2r: 4.21E-06 2x: 0.00E+00 2u: 0.00E+00 ir: 2.57E-06 iu: 0.00E+00 rsn:   0
  1 2r: 7.27E-08 2x: 9.32E+05 2u: 3.36E+02 ir: 6.28E-08 iu: 2.18E+02 rsn:   0
  2 2r: 3.78E-11 2x: 9.32E+05 2u: 5.41E+00 ir: 3.72E-11 iu: 4.59E+00 rsn:   0
  3 2r: 1.22E-17 2x: 9.32E+05 2u: 2.47E-03 ir: 1.15E-17 iu: 2.44E-03 rsn: rtol
 Step     92 Time=  6.75000E-01 Dt=  8.33333E-03 [hour] snes_conv_reason:    3
  newton =   3 [     300] linear =     3 [       300] cuts =  0 [   0]
  --> max chng: dpmx=   2.1325E+02

== RICHARDS FLOW ===============================================================
  0 2r: 4.19E-06 2x: 0.00E+00 2u: 0.00E+00 ir: 2.56E-06 iu: 0.00E+00 rsn:   0
  1 2r: 7.08E-08 2x: 9.32E+05 2u: 3.35E+02 ir: 6.09E-08 iu: 2.16E+02 rsn:   0
  2 2r: 3.40E-11 2x: 9.32E+05 2u: 5.34E+00 ir: 3.38E-11 iu: 4.25E+00 rsn:   0
  3 2r: 9.56E-18 2x: 9.32E+05 2u: 2.13E-03 ir: 8.97E-18 iu: 2.11E-03 rsn: rtol
 Step     93 Time=  6.83333E-01 Dt=  8.33333E-03 [hour] snes_conv_reason:    3
  newton =   3 [     303] linear =     3 [       303] cuts =  0 [   0]
  --> max chng: dpmx=   2.1318E+02

== RICHARDS FLOW ===============================================================
  0 2r: 4.16E-06 2x: 0.00E+00 2u: 0.00E+00 ir: 2.54E-06 iu: 0.00E+00 rsn:   0
  1 2r: 6.92E-08 2x: 9.32E+05 2u: 3.34E+02 ir: 5.86E-08 iu: 2.26E+02 rsn:   0
  2 2r: 3.01E-11 2x: 9.32E+05 2u: 5.35E+00 ir: 3.00E-11 iu: 3.92E+00 rsn:   0
  3 2r: 7.34E-18 2x: 9.32E+05 2u: 1.89E-03 ir: 6.69E-18 iu: 1.80E-03 rsn: rtol
 Step     94 Time=  6.91667E-01 Dt=  8.33333E-03 [hour] snes_conv_reason:    3
  newton =   3 [     306] linear =     3 [       306] cuts =  0 [   0]
  --> max chng: dpmx=   2.2262E+02

== RICHARDS FLOW ===============================================================
  0 2r: 4.14E-06 2x: 0.00E+00 2u: 0.00E+00 ir: 2.52E-06 iu: 0.00E+00 rsn:   0
  1 2r: 6.81E-08 2x: 9.32E+05 2u: 3.33E+02 ir: 5.58E-08 iu: 2.33E+02 rsn:   0
  2 2r: 2.69E-11 2x: 9.32E+05 2u: 5.39E+00 ir: 2.61E-11 iu: 3.82E+00 rsn:   0
  3 2r: 5.28E-18 2x: 9.32E+05 2u: 1.82E-03 ir: 4.85E-18 iu: 1.51E-03 rsn: rtol
 Step     95 Time=  7.00000E-01 Dt=  8.33333E-03 [hour] snes_conv_reason:    3
  newton =   3 [     309] linear =     3 [       309] cuts =  0 [   0]
  --> max chng: dpmx=   2.2957E+02

== RICHARDS FLOW ===============================================================
  0 2r: 4.12E-06 2x: 0.00E+00 2u: 0.00E+00 ir: 2.49E-06 iu: 0.00E+00 rsn:   0
  1 2r: 6.75E-08 2x: 9.32E+05 2u: 3.31E+02 ir: 5.29E-08 iu: 2.38E+02 rsn:   0
  2 2r: 2.51E-11 2x: 9.32E+05 2u: 5.45E+00 ir: 2.23E-11 iu: 4.19E+00 rsn:   0
  3 2r: 4.07E-18 2x: 9.32E+05 2u: 1.90E-03 ir: 3.14E-18 iu: 1.39E-03 rsn: rtol
 Step     96 Time=  7.08333E-01 Dt=  8.33333E-03 [hour] snes_conv_reason:    3
  newton =   3 [     312] linear =     3 [       312] cuts =  0 [   0]
  --> max chng: dpmx=   2.3398E+02

== RICHARDS FLOW ===============================================================
  0 2r: 4.10E-06 2x: 0.00E+00 2u: 0.00E+00 ir: 2.45E-06 iu: 0.00E+00 rsn:   0
  1 2r: 6.73E-08 2x: 9.32E+05 2u: 3.29E+02 ir: 4.99E-08 iu: 2.40E+02 rsn:   0
  2 2r: 2.49E-11 2x: 9.32E+05 2u: 5.48E+00 ir: 1.87E-11 iu: 4.47E+00 rsn:   0
  3 2r: 4.53E-18 2x: 9.32E+05 2u: 2.08E-03 ir: 2.74E-18 iu: 1.76E-03 rsn: rtol
 Step     97 Time=  7.16667E-01 Dt=  8.33333E-03 [hour] snes_conv_reason:    3
  newton =   3 [     315] linear =     3 [       315] cuts =  0 [   0]
  --> max chng: dpmx=   2.3593E+02

== RICHARDS FLOW ===============================================================
  0 2r: 4.09E-06 2x: 0.00E+00 2u: 0.00E+00 ir: 2.41E-06 iu: 0.00E+00 rsn:   0
  1 2r: 6.73E-08 2x: 9.32E+05 2u: 3.27E+02 ir: 4.68E-08 iu: 2.40E+02 rsn:   0
  2 2r: 2.60E-11 2x: 9.32E+05 2u: 5.47E+00 ir: 2.03E-11 iu: 4.65E+00 rsn:   0
  3 2r: 4.92E-18 2x: 9.32E+05 2u: 2.26E-03 ir: 4.39E-18 iu: 2.03E-03 rsn: rtol
 Step     98 Time=  7.25000E-01 Dt=  8.33333E-03 [hour] snes_conv_reason:    3
  newton =   3 [     318] linear =     3 [       318] cuts =  0 [   0]
  --> max chng: dpmx=   2.3561E+02

== RICHARDS FLOW ===============================================================
  0 2r: 4.07E-06 2x: 0.00E+00 2u: 0.00E+00 ir: 2.37E-06 iu: 0.00E+00 rsn:   0
  1 2r: 6.77E-08 2x: 9.32E+05 2u: 3.24E+02 ir: 4.76E-08 iu: 2.38E+02 rsn:   0
  2 2r: 2.92E-11 2x: 9.32E+05 2u: 5.41E+00 ir: 2.39E-11 iu: 4.73E+00 rsn:   0
  3 2r: 1.13E-17 2x: 9.32E+05 2u: 2.39E-03 ir: 6.78E-18 iu: 2.22E-03 rsn: rtol
 Step     99 Time=  7.33333E-01 Dt=  8.33333E-03 [hour] snes_conv_reason:    3
  newton =   3 [     321] linear =     3 [       321] cuts =  0 [   0]
  --> max chng: dpmx=   2.3326E+02

== RICHARDS FLOW ===============================================================
  0 2r: 4.05E-06 2x: 0.00E+00 2u: 0.00E+00 ir: 2.33E-06 iu: 0.00E+00 rsn:   0
  1 2r: 6.91E-08 2x: 9.32E+05 2u: 3.22E+02 ir: 5.03E-08 iu: 2.34E+02 rsn:   0
  2 2r: 8.34E-11 2x: 9.32E+05 2u: 5.30E+00 ir: 5.53E-11 iu: 4.72E+00 rsn:   0
  3 2r: 1.81E-15 2x: 9.32E+05 2u: 2.46E-03 ir: 1.28E-15 iu: 2.30E-03 rsn: rtol
 Step    100 Time=  7.41667E-01 Dt=  8.33333E-03 [hour] snes_conv_reason:    3
  newton =   3 [     324] linear =     3 [       324] cuts =  0 [   0]
  --> max chng: dpmx=   2.2921E+02

== RICHARDS FLOW ===============================================================
  0 2r: 4.03E-06 2x: 0.00E+00 2u: 0.00E+00 ir: 2.29E-06 iu: 0.00E+00 rsn:   0
  1 2r: 8.69E-08 2x: 9.32E+05 2u: 3.20E+02 ir: 5.22E-08 iu: 2.28E+02 rsn:   0
  2 2r: 3.93E-09 2x: 9.32E+05 2u: 5.15E+00 ir: 2.78E-09 iu: 4.63E+00 rsn:   0
  3 2r: 1.75E-11 2x: 9.32E+05 2u: 1.11E-02 ir: 1.24E-11 iu: 6.48E-03 rsn:   0
  4 2r: 3.61E-16 2x: 9.32E+05 2u: 4.88E-05 ir: 2.55E-16 iu: 2.91E-05 rsn: rtol
 Step    101 Time=  7.50000E-01 Dt=  8.33333E-03 [hour] snes_conv_reason:    3
  newton =   4 [     328] linear =     4 [       328] cuts =  0 [   0]
  --> max chng: dpmx=   2.2379E+02

== RICHARDS FLOW ===============================================================
  0 2r: 4.01E-06 2x: 0.00E+00 2u: 0.00E+00 ir: 2.32E-06 iu: 0.00E+00 rsn:   0
  1 2r: 9.00E-08 2x: 9.32E+05 2u: 3.18E+02 ir: 5.32E-08 iu: 2.22E+02 rsn:   0
  2 2r: 3.14E-11 2x: 9.32E+05 2u: 5.01E+00 ir: 2.86E-11 iu: 4.48E+00 rsn:   0
  3 2r: 7.81E-18 2x: 9.32E+05 2u: 2.30E-03 ir: 7.48E-18 iu: 2.19E-03 rsn: rtol
 Step    102 Time=  7.58333E-01 Dt=  8.33333E-03 [hour] snes_conv_reason:    3
  newton =   3 [     331] linear =     3 [       331] cuts =  0 [   0]
  --> max chng: dpmx=   2.1732E+02

== RICHARDS FLOW ===============================================================
  0 2r: 3.99E-06 2x: 0.00E+00 2u: 0.00E+00 ir: 2.35E-06 iu: 0.00E+00 rsn:   0
  1 2r: 6.40E-08 2x: 9.32E+05 2u: 3.17E+02 ir: 5.35E-08 iu: 2.14E+02 rsn:   0
  2 2r: 2.92E-11 2x: 9.32E+05 2u: 4.85E+00 ir: 2.82E-11 iu: 4.28E+00 rsn:   0
  3 2r: 7.58E-18 2x: 9.32E+05 2u: 2.12E-03 ir: 7.05E-18 iu: 2.05E-03 rsn: rtol
 Step    103 Time=  7.66667E-01 Dt=  8.33333E-03 [hour] snes_conv_reason:    3
  newton =   3 [     334] linear =     3 [       334] cuts =  0 [   0]
  --> max chng: dpmx=   2.1012E+02

== RICHARDS FLOW ===============================================================
  0 2r: 3.97E-06 2x: 0.00E+00 2u: 0.00E+00 ir: 2.36E-06 iu: 0.00E+00 rsn:   0
  1 2r: 6.27E-08 2x: 9.33E+05 2u: 3.16E+02 ir: 5.30E-08 iu: 2.07E+02 rsn:   0
  2 2r: 2.77E-11 2x: 9.33E+05 2u: 4.73E+00 ir: 2.70E-11 iu: 4.05E+00 rsn:   0
  3 2r: 6.74E-18 2x: 9.33E+05 2u: 1.90E-03 ir: 6.15E-18 iu: 1.86E-03 rsn: rtol
 Step    104 Time=  7.75000E-01 Dt=  8.33333E-03 [hour] snes_conv_reason:    3
  newton =   3 [     337] linear =     3 [       337] cuts =  0 [   0]
  --> max chng: dpmx=   2.0246E+02

== RICHARDS FLOW ===============================================================
  0 2r: 3.95E-06 2x: 0.00E+00 2u: 0.00E+00 ir: 2.36E-06 iu: 0.00E+00 rsn:   0
  1 2r: 6.14E-08 2x: 9.33E+05 2u: 3.15E+02 ir: 5.21E-08 iu: 1.98E+02 rsn:   0
  2 2r: 2.56E-11 2x: 9.33E+05 2u: 4.67E+00 ir: 2.53E-11 iu: 3.81E+00 rsn:   0
  3 2r: 6.23E-18 2x: 9.33E+05 2u: 1.68E-03 ir: 5.29E-18 iu: 1.66E-03 rsn: rtol
 Step    105 Time=  7.83333E-01 Dt=  8.33333E-03 [hour] snes_conv_reason:    3
  newton =   3 [     340] linear =     3 [       340] cuts =  0 [   0]
  --> max chng: dpmx=   1.9457E+02

== RICHARDS FLOW ===============================================================
  0 2r: 3.94E-06 2x: 0.00E+00 2u: 0.00E+00 ir: 2.35E-06 iu: 0.00E+00 rsn:   0
  1 2r: 6.02E-08 2x: 9.33E+05 2u: 3.14E+02 ir: 5.06E-08 iu: 2.05E+02 rsn:   0
  2 2r: 2.32E-11 2x: 9.33E+05 2u: 4.65E+00 ir: 2.31E-11 iu: 3.56E+00 rsn:   0
  3 2r: 5.16E-18 2x: 9.33E+05 2u: 1.49E-03 ir: 4.20E-18 iu: 1.46E-03 rsn: rtol
 Step    106 Time=  7.91667E-01 Dt=  8.33333E-03 [hour] snes_conv_reason:    3
  newton =   3 [     343] linear =     3 [       343] cuts =  0 [   0]
  --> max chng: dpmx=   2.0205E+02

== RICHARDS FLOW ===============================================================
  0 2r: 3.92E-06 2x: 0.00E+00 2u: 0.00E+00 ir: 2.34E-06 iu: 0.00E+00 rsn:   0
  1 2r: 5.93E-08 2x: 9.33E+05 2u: 3.13E+02 ir: 4.89E-08 iu: 2.12E+02 rsn:   0
  2 2r: 2.11E-11 2x: 9.33E+05 2u: 4.68E+00 ir: 2.08E-11 iu: 3.31E+00 rsn:   0
  3 2r: 3.78E-18 2x: 9.33E+05 2u: 1.39E-03 ir: 3.14E-18 iu: 1.26E-03 rsn: rtol
 Step    107 Time=  8.00000E-01 Dt=  8.33333E-03 [hour] snes_conv_reason:    3
  newton =   3 [     346] linear =     3 [       346] cuts =  0 [   0]
  --> max chng: dpmx=   2.0934E+02

== RICHARDS FLOW ===============================================================
  0 2r: 3.90E-06 2x: 0.00E+00 2u: 0.00E+00 ir: 2.32E-06 iu: 0.00E+00 rsn:   0
  1 2r: 5.87E-08 2x: 9.33E+05 2u: 3.12E+02 ir: 4.69E-08 iu: 2.18E+02 rsn:   0
  2 2r: 1.94E-11 2x: 9.33E+05 2u: 4.72E+00 ir: 1.84E-11 iu: 3.41E+00 rsn:   0
  3 2r: 4.10E-18 2x: 9.33E+05 2u: 1.39E-03 ir: 2.25E-18 iu: 1.08E-03 rsn: rtol
 Step    108 Time=  8.08333E-01 Dt=  8.33333E-03 [hour] snes_conv_reason:    3
  newton =   3 [     349] linear =     3 [       349] cuts =  0 [   0]
  --> max chng: dpmx=   2.1462E+02

== RICHARDS FLOW ===============================================================
  0 2r: 3.89E-06 2x: 0.00E+00 2u: 0.00E+00 ir: 2.30E-06 iu: 0.00E+00 rsn:   0
  1 2r: 5.84E-08 2x: 9.33E+05 2u: 3.11E+02 ir: 4.48E-08 iu: 2.22E+02 rsn:   0
  2 2r: 1.86E-11 2x: 9.33E+05 2u: 4.76E+00 ir: 1.60E-11 iu: 3.69E+00 rsn:   0
  3 2r: 2.80E-18 2x: 9.33E+05 2u: 1.47E-03 ir: 1.52E-18 iu: 1.11E-03 rsn: rtol
 Step    109 Time=  8.16667E-01 Dt=  8.33333E-03 [hour] snes_conv_reason:    3
  newton =   3 [     352] linear =     3 [       352] cuts =  0 [   0]
  --> max chng: dpmx=   2.1789E+02

== RICHARDS FLOW ===============================================================
  0 2r: 3.87E-06 2x: 0.00E+00 2u: 0.00E+00 ir: 2.27E-06 iu: 0.00E+00 rsn:   0
  1 2r: 5.83E-08 2x: 9.33E+05 2u: 3.09E+02 ir: 4.26E-08 iu: 2.23E+02 rsn:   0
  2 2r: 1.87E-11 2x: 9.33E+05 2u: 4.77E+00 ir: 1.37E-11 iu: 3.90E+00 rsn:   0
  3 2r: 3.23E-18 2x: 9.33E+05 2u: 1.59E-03 ir: 1.63E-18 iu: 1.35E-03 rsn: rtol
 Step    110 Time=  8.25000E-01 Dt=  8.33333E-03 [hour] snes_conv_reason:    3
  newton =   3 [     355] linear =     3 [       355] cuts =  0 [   0]
  --> max chng: dpmx=   2.1922E+02

== RICHARDS FLOW ===============================================================
  0 2r: 3.86E-06 2x: 0.00E+00 2u: 0.00E+00 ir: 2.24E-06 iu: 0.00E+00 rsn:   0
  1 2r: 5.82E-08 2x: 9.33E+05 2u: 3.07E+02 ir: 4.03E-08 iu: 2.23E+02 rsn:   0
  2 2r: 1.95E-11 2x: 9.33E+05 2u: 4.76E+00 ir: 1.53E-11 iu: 4.03E+00 rsn:   0
  3 2r: 3.18E-18 2x: 9.33E+05 2u: 1.70E-03 ir: 2.49E-18 iu: 1.53E-03 rsn: rtol
 Step    111 Time=  8.33333E-01 Dt=  8.33333E-03 [hour] snes_conv_reason:    3
  newton =   3 [     358] linear =     3 [       358] cuts =  0 [   0]
  --> max chng: dpmx=   2.1876E+02

== RICHARDS FLOW ===============================================================
  0 2r: 3.84E-06 2x: 0.00E+00 2u: 0.00E+00 ir: 2.21E-06 iu: 0.00E+00 rsn:   0
  1 2r: 5.81E-08 2x: 9.33E+05 2u: 3.05E+02 ir: 4.10E-08 iu: 2.21E+02 rsn:   0
  2 2r: 2.06E-11 2x: 9.33E+05 2u: 4.70E+00 ir: 1.77E-11 iu: 4.08E+00 rsn:   0
  3 2r: 3.86E-18 2x: 9.33E+05 2u: 1.78E-03 ir: 3.28E-18 iu: 1.64E-03 rsn: rtol
 Step    112 Time=  8.41667E-01 Dt=  8.33333E-03 [hour] snes_conv_reason:    3
  newton =   3 [     361] linear =     3 [       361] cuts =  0 [   0]
  --> max chng: dpmx=   2.1670E+02

== RICHARDS FLOW ===============================================================
  0 2r: 3.82E-06 2x: 0.00E+00 2u: 0.00E+00 ir: 2.18E-06 iu: 0.00E+00 rsn:   0
  1 2r: 5.79E-08 2x: 9.33E+05 2u: 3.03E+02 ir: 4.32E-08 iu: 2.17E+02 rsn:   0
  2 2r: 2.15E-11 2x: 9.33E+05 2u: 4.62E+00 ir: 1.94E-11 iu: 4.07E+00 rsn:   0
  3 2r: 4.42E-18 2x: 9.33E+05 2u: 1.81E-03 ir: 3.88E-18 iu: 1.70E-03 rsn: rtol
 Step    113 Time=  8.50000E-01 Dt=  8.33333E-03 [hour] snes_conv_reason:    3
  newton =   3 [     364] linear =     3 [       364] cuts =  0 [   0]
  --> max chng: dpmx=   2.1327E+02

== RICHARDS FLOW ===============================================================
  0 2r: 3.81E-06 2x: 0.00E+00 2u: 0.00E+00 ir: 2.14E-06 iu: 0.00E+00 rsn:   0
  1 2r: 5.74E-08 2x: 9.33E+05 2u: 3.02E+02 ir: 4.47E-08 iu: 2.13E+02 rsn:   0
  2 2r: 2.21E-11 2x: 9.33E+05 2u: 4.51E+00 ir: 2.05E-11 iu: 4.01E+00 rsn:   0
  3 2r: 5.16E-18 2x: 9.33E+05 2u: 1.78E-03 ir: 4.07E-18 iu: 1.69E-03 rsn: rtol
 Step    114 Time=  8.58333E-01 Dt=  8.33333E-03 [hour] snes_conv_reason:    3
  newton =   3 [     367] linear =     3 [       367] cuts =  0 [   0]
  --> max chng: dpmx=   2.0872E+02

== RICHARDS FLOW ===============================================================
  0 2r: 3.79E-06 2x: 0.00E+00 2u: 0.00E+00 ir: 2.16E-06 iu: 0.00E+00 rsn:   0
  1 2r: 5.67E-08 2x: 9.33E+05 2u: 3.00E+02 ir: 4.56E-08 iu: 2.07E+02 rsn:   0
  2 2r: 2.21E-11 2x: 9.33E+05 2u: 4.39E+00 ir: 2.10E-11 iu: 3.89E+00 rsn:   0
  3 2r: 5.03E-18 2x: 9.33E+05 2u: 1.71E-03 ir: 4.20E-18 iu: 1.64E-03 rsn: rtol
 Step    115 Time=  8.66667E-01 Dt=  8.33333E-03 [hour] snes_conv_reason:    3
  newton =   3 [     370] linear =     3 [       370] cuts =  0 [   0]
  --> max chng: dpmx=   2.0329E+02

== RICHARDS FLOW ===============================================================
  0 2r: 3.77E-06 2x: 0.00E+00 2u: 0.00E+00 ir: 2.18E-06 iu: 0.00E+00 rsn:   0
  1 2r: 5.59E-08 2x: 9.33E+05 2u: 2.99E+02 ir: 4.59E-08 iu: 2.01E+02 rsn:   0
  2 2r: 2.16E-11 2x: 9.33E+05 2u: 4.28E+00 ir: 2.08E-11 iu: 3.74E+00 rsn:   0
  3 2r: 5.45E-18 2x: 9.33E+05 2u: 1.59E-03 ir: 3.85E-18 iu: 1.54E-03 rsn: rtol
 Step    116 Time=  8.75000E-01 Dt=  8.33333E-03 [hour] snes_conv_reason:    3
  newton =   3 [     373] linear =     3 [       373] cuts =  0 [   0]
  --> max chng: dpmx=   1.9723E+02

== RICHARDS FLOW ===============================================================
  0 2r: 3.76E-06 2x: 0.00E+00 2u: 0.00E+00 ir: 2.20E-06 iu: 0.00E+00 rsn:   0
  1 2r: 5.49E-08 2x: 9.34E+05 2u: 2.99E+02 ir: 4.57E-08 iu: 1.94E+02 rsn:   0
  2 2r: 2.06E-11 2x: 9.34E+05 2u: 4.20E+00 ir: 2.01E-11 iu: 3.56E+00 rsn:   0
  3 2r: 4.02E-18 2x: 9.34E+05 2u: 1.45E-03 ir: 3.58E-18 iu: 1.42E-03 rsn: rtol
 Step    117 Time=  8.83333E-01 Dt=  8.33333E-03 [hour] snes_conv_reason:    3
  newton =   3 [     376] linear =     3 [       376] cuts =  0 [   0]
  --> max chng: dpmx=   1.9073E+02

== RICHARDS FLOW ===============================================================
  0 2r: 3.74E-06 2x: 0.00E+00 2u: 0.00E+00 ir: 2.20E-06 iu: 0.00E+00 rsn:   0
  1 2r: 5.39E-08 2x: 9.34E+05 2u: 2.98E+02 ir: 4.50E-08 iu: 1.87E+02 rsn:   0
  2 2r: 1.93E-11 2x: 9.34E+05 2u: 4.15E+00 ir: 1.90E-11 iu: 3.37E+00 rsn:   0
  3 2r: 4.55E-18 2x: 9.34E+05 2u: 1.30E-03 ir: 3.04E-18 iu: 1.29E-03 rsn: rtol
 Step    118 Time=  8.91667E-01 Dt=  8.33333E-03 [hour] snes_conv_reason:    3
  newton =   3 [     379] linear =     3 [       379] cuts =  0 [   0]
  --> max chng: dpmx=   1.8399E+02

== RICHARDS FLOW ===============================================================
  0 2r: 3.73E-06 2x: 0.00E+00 2u: 0.00E+00 ir: 2.20E-06 iu: 0.00E+00 rsn:   0
  1 2r: 5.30E-08 2x: 9.34E+05 2u: 2.97E+02 ir: 4.40E-08 iu: 1.91E+02 rsn:   0
  2 2r: 1.78E-11 2x: 9.34E+05 2u: 4.14E+00 ir: 1.77E-11 iu: 3.17E+00 rsn:   0
  3 2r: 3.22E-18 2x: 9.34E+05 2u: 1.17E-03 ir: 2.57E-18 iu: 1.15E-03 rsn: rtol
 Step    119 Time=  9.00000E-01 Dt=  8.33333E-03 [hour] snes_conv_reason:    3
  newton =   3 [     382] linear =     3 [       382] cuts =  0 [   0]
  --> max chng: dpmx=   1.8844E+02

== RICHARDS FLOW ===============================================================
  0 2r: 3.71E-06 2x: 0.00E+00 2u: 0.00E+00 ir: 2.19E-06 iu: 0.00E+00 rsn:   0
  1 2r: 5.23E-08 2x: 9.34E+05 2u: 2.97E+02 ir: 4.27E-08 iu: 1.98E+02 rsn:   0
  2 2r: 1.63E-11 2x: 9.34E+05 2u: 4.15E+00 ir: 1.61E-11 iu: 2.97E+00 rsn:   0
  3 2r: 3.03E-18 2x: 9.34E+05 2u: 1.10E-03 ir: 2.11E-18 iu: 1.01E-03 rsn: rtol
 Step    120 Time=  9.08333E-01 Dt=  8.33333E-03 [hour] snes_conv_reason:    3
  newton =   3 [     385] linear =     3 [       385] cuts =  0 [   0]
  --> max chng: dpmx=   1.9509E+02

== RICHARDS FLOW ===============================================================
  0 2r: 3.70E-06 2x: 0.00E+00 2u: 0.00E+00 ir: 2.18E-06 iu: 0.00E+00 rsn:   0
  1 2r: 5.18E-08 2x: 9.34E+05 2u: 2.96E+02 ir: 4.13E-08 iu: 2.03E+02 rsn:   0
  2 2r: 1.51E-11 2x: 9.34E+05 2u: 4.18E+00 ir: 1.45E-11 iu: 2.95E+00 rsn:   0
  3 2r: 2.45E-18 2x: 9.34E+05 2u: 1.08E-03 ir: 1.44E-18 iu: 8.77E-04 rsn: rtol
 Step    121 Time=  9.16667E-01 Dt=  8.33333E-03 [hour] snes_conv_reason:    3
  newton =   3 [     388] linear =     3 [       388] cuts =  0 [   0]
  --> max chng: dpmx=   2.0008E+02

== RICHARDS FLOW ===============================================================
  0 2r: 3.69E-06 2x: 0.00E+00 2u: 0.00E+00 ir: 2.16E-06 iu: 0.00E+00 rsn:   0
  1 2r: 5.15E-08 2x: 9.34E+05 2u: 2.94E+02 ir: 3.96E-08 iu: 2.07E+02 rsn:   0
  2 2r: 1.45E-11 2x: 9.34E+05 2u: 4.21E+00 ir: 1.28E-11 iu: 3.18E+00 rsn:   0
  3 2r: 2.79E-18 2x: 9.34E+05 2u: 1.12E-03 ir: 1.46E-18 iu: 8.06E-04 rsn: rtol
 Step    122 Time=  9.25000E-01 Dt=  8.33333E-03 [hour] snes_conv_reason:    3
  newton =   3 [     391] linear =     3 [       391] cuts =  0 [   0]
  --> max chng: dpmx=   2.0341E+02

== RICHARDS FLOW ===============================================================
  0 2r: 3.67E-06 2x: 0.00E+00 2u: 0.00E+00 ir: 2.14E-06 iu: 0.00E+00 rsn:   0
  1 2r: 5.14E-08 2x: 9.34E+05 2u: 2.93E+02 ir: 3.79E-08 iu: 2.08E+02 rsn:   0
  2 2r: 1.44E-11 2x: 9.34E+05 2u: 4.22E+00 ir: 1.12E-11 iu: 3.37E+00 rsn:   0
  3 2r: 2.12E-18 2x: 9.34E+05 2u: 1.20E-03 ir: 9.22E-19 iu: 9.81E-04 rsn: rtol
 Step    123 Time=  9.33333E-01 Dt=  8.33333E-03 [hour] snes_conv_reason:    3
  newton =   3 [     394] linear =     3 [       394] cuts =  0 [   0]
  --> max chng: dpmx=   2.0511E+02

== RICHARDS FLOW ===============================================================
  0 2r: 3.66E-06 2x: 0.00E+00 2u: 0.00E+00 ir: 2.11E-06 iu: 0.00E+00 rsn:   0
  1 2r: 5.13E-08 2x: 9.34E+05 2u: 2.92E+02 ir: 3.61E-08 iu: 2.09E+02 rsn:   0
  2 2r: 1.48E-11 2x: 9.34E+05 2u: 4.21E+00 ir: 1.09E-11 iu: 3.50E+00 rsn:   0
  3 2r: 2.37E-18 2x: 9.34E+05 2u: 1.28E-03 ir: 1.33E-18 iu: 1.12E-03 rsn: rtol
 Step    124 Time=  9.41667E-01 Dt=  8.33333E-03 [hour] snes_conv_reason:    3
  newton =   3 [     397] linear =     3 [       397] cuts =  0 [   0]
  --> max chng: dpmx=   2.0528E+02

== RICHARDS FLOW ===============================================================
  0 2r: 3.65E-06 2x: 0.00E+00 2u: 0.00E+00 ir: 2.09E-06 iu: 0.00E+00 rsn:   0
  1 2r: 5.12E-08 2x: 9.34E+05 2u: 2.90E+02 ir: 3.48E-08 iu: 2.08E+02 rsn:   0
  2 2r: 1.54E-11 2x: 9.34E+05 2u: 4.18E+00 ir: 1.27E-11 iu: 3.56E+00 rsn:   0
  3 2r: 2.50E-18 2x: 9.34E+05 2u: 1.34E-03 ir: 1.71E-18 iu: 1.22E-03 rsn: rtol
 Step    125 Time=  9.50000E-01 Dt=  8.33333E-03 [hour] snes_conv_reason:    3
  newton =   3 [     400] linear =     3 [       400] cuts =  0 [   0]
  --> max chng: dpmx=   2.0407E+02

== RICHARDS FLOW ===============================================================
  0 2r: 3.64E-06 2x: 0.00E+00 2u: 0.00E+00 ir: 2.06E-06 iu: 0.00E+00 rsn:   0
  1 2r: 5.11E-08 2x: 9.34E+05 2u: 2.88E+02 ir: 3.68E-08 iu: 2.05E+02 rsn:   0
  2 2r: 1.61E-11 2x: 9.34E+05 2u: 4.12E+00 ir: 1.41E-11 iu: 3.58E+00 rsn:   0
  3 2r: 2.99E-18 2x: 9.34E+05 2u: 1.38E-03 ir: 1.92E-18 iu: 1.28E-03 rsn: rtol
 Step    126 Time=  9.58333E-01 Dt=  8.33333E-03 [hour] snes_conv_reason:    3
  newton =   3 [     403] linear =     3 [       403] cuts =  0 [   0]
  --> max chng: dpmx=   2.0165E+02

== RICHARDS FLOW ===============================================================
  0 2r: 3.62E-06 2x: 0.00E+00 2u: 0.00E+00 ir: 2.03E-06 iu: 0.00E+00 rsn:   0
  1 2r: 5.08E-08 2x: 9.34E+05 2u: 2.87E+02 ir: 3.83E-08 iu: 2.02E+02 rsn:   0
  2 2r: 1.66E-11 2x: 9.34E+05 2u: 4.04E+00 ir: 1.51E-11 iu: 3.55E+00 rsn:   0
  3 2r: 3.35E-18 2x: 9.34E+05 2u: 1.38E-03 ir: 2.33E-18 iu: 1.30E-03 rsn: rtol
 Step    127 Time=  9.66667E-01 Dt=  8.33333E-03 [hour] snes_conv_reason:    3
  newton =   3 [     406] linear =     3 [       406] cuts =  0 [   0]
  --> max chng: dpmx=   1.9820E+02

== RICHARDS FLOW ===============================================================
  0 2r: 3.61E-06 2x: 0.00E+00 2u: 0.00E+00 ir: 2.01E-06 iu: 0.00E+00 rsn:   0
  1 2r: 5.04E-08 2x: 9.34E+05 2u: 2.86E+02 ir: 3.93E-08 iu: 1.97E+02 rsn:   0
  2 2r: 1.68E-11 2x: 9.34E+05 2u: 3.95E+00 ir: 1.57E-11 iu: 3.48E+00 rsn:   0
  3 2r: 2.97E-18 2x: 9.34E+05 2u: 1.34E-03 ir: 2.44E-18 iu: 1.28E-03 rsn: rtol
 Step    128 Time=  9.75000E-01 Dt=  8.33333E-03 [hour] snes_conv_reason:    3
  newton =   3 [     409] linear =     3 [       409] cuts =  0 [   0]
  --> max chng: dpmx=   1.9393E+02

== RICHARDS FLOW ===============================================================
  0 2r: 3.60E-06 2x: 0.00E+00 2u: 0.00E+00 ir: 2.03E-06 iu: 0.00E+00 rsn:   0
  1 2r: 4.98E-08 2x: 9.34E+05 2u: 2.85E+02 ir: 3.98E-08 iu: 1.92E+02 rsn:   0
  2 2r: 1.66E-11 2x: 9.34E+05 2u: 3.87E+00 ir: 1.58E-11 iu: 3.37E+00 rsn:   0
  3 2r: 3.49E-18 2x: 9.34E+05 2u: 1.27E-03 ir: 2.33E-18 iu: 1.23E-03 rsn: rtol
 Step    129 Time=  9.83333E-01 Dt=  8.33333E-03 [hour] snes_conv_reason:    3
  newton =   3 [     412] linear =     3 [       412] cuts =  0 [   0]
  --> max chng: dpmx=   1.8902E+02

== RICHARDS FLOW ===============================================================
  0 2r: 3.58E-06 2x: 0.00E+00 2u: 0.00E+00 ir: 2.05E-06 iu: 0.00E+00 rsn:   0
[...]
  0 2r: 7.45E-18 2x: 0.00E+00 2u: 0.00E+00 ir: 1.95E-18 iu: 0.00E+00 rsn:   0
  1 2r: 8.21E-18 2x: 1.07E+06 2u: 3.90E-10 ir: 1.84E-18 iu: 5.97E-11 rsn: stol
 Step   2226 Time=  1.46167E+01 Dt=  8.33333E-03 [hour] snes_conv_reason:    4
  newton =   1 [   14606] linear =     1 [     14606] cuts =  0 [ 164]
  --> max chng: dpmx=   5.8208E-11

== RICHARDS FLOW ===============================================================
  0 2r: 8.21E-18 2x: 0.00E+00 2u: 0.00E+00 ir: 1.84E-18 iu: 0.00E+00 rsn:   0
  1 2r: 7.45E-18 2x: 1.07E+06 2u: 3.92E-10 ir: 1.95E-18 iu: 6.08E-11 rsn: stol
 Step   2227 Time=  1.46250E+01 Dt=  8.33333E-03 [hour] snes_conv_reason:    4
  newton =   1 [   14607] linear =     1 [     14607] cuts =  0 [ 164]
  --> max chng: dpmx=   5.8208E-11

== RICHARDS FLOW ===============================================================
  0 2r: 7.45E-18 2x: 0.00E+00 2u: 0.00E+00 ir: 1.95E-18 iu: 0.00E+00 rsn:   0
  1 2r: 8.21E-18 2x: 1.07E+06 2u: 3.90E-10 ir: 1.84E-18 iu: 5.97E-11 rsn: stol
 Step   2228 Time=  1.46333E+01 Dt=  8.33333E-03 [hour] snes_conv_reason:    4
  newton =   1 [   14608] linear =     1 [     14608] cuts =  0 [ 164]
  --> max chng: dpmx=   5.8208E-11

== RICHARDS FLOW ===============================================================
  0 2r: 8.21E-18 2x: 0.00E+00 2u: 0.00E+00 ir: 1.84E-18 iu: 0.00E+00 rsn:   0
  1 2r: 7.45E-18 2x: 1.07E+06 2u: 3.92E-10 ir: 1.95E-18 iu: 6.08E-11 rsn: stol
 Step   2229 Time=  1.46417E+01 Dt=  8.33333E-03 [hour] snes_conv_reason:    4
  newton =   1 [   14609] linear =     1 [     14609] cuts =  0 [ 164]
  --> max chng: dpmx=   5.8208E-11

== RICHARDS FLOW ===============================================================
  0 2r: 7.45E-18 2x: 0.00E+00 2u: 0.00E+00 ir: 1.95E-18 iu: 0.00E+00 rsn:   0
  1 2r: 8.21E-18 2x: 1.07E+06 2u: 3.90E-10 ir: 1.84E-18 iu: 5.97E-11 rsn: stol
 Step   2230 Time=  1.46500E+01 Dt=  8.33333E-03 [hour] snes_conv_reason:    4
  newton =   1 [   14610] linear =     1 [     14610] cuts =  0 [ 164]
  --> max chng: dpmx=   5.8208E-11

== RICHARDS FLOW ===============================================================
  0 2r: 8.21E-18 2x: 0.00E+00 2u: 0.00E+00 ir: 1.84E-18 iu: 0.00E+00 rsn:   0
  1 2r: 7.45E-18 2x: 1.07E+06 2u: 3.92E-10 ir: 1.95E-18 iu: 6.08E-11 rsn: stol
 Step   2231 Time=  1.46583E+01 Dt=  8.33333E-03 [hour] snes_conv_reason:    4
  newton =   1 [   14611] linear =     1 [     14611] cuts =  0 [ 164]
  --> max chng: dpmx=   5.8208E-11

== RICHARDS FLOW ===============================================================
  0 2r: 7.45E-18 2x: 0.00E+00 2u: 0.00E+00 ir: 1.95E-18 iu: 0.00E+00 rsn:   0
  1 2r: 8.21E-18 2x: 1.07E+06 2u: 3.90E-10 ir: 1.84E-18 iu: 5.97E-11 rsn: stol
 Step   2232 Time=  1.46667E+01 Dt=  8.33333E-03 [hour] snes_conv_reason:    4
  newton =   1 [   14612] linear =     1 [     14612] cuts =  0 [ 164]
  --> max chng: dpmx=   5.8208E-11

== RICHARDS FLOW ===============================================================
  0 2r: 8.21E-18 2x: 0.00E+00 2u: 0.00E+00 ir: 1.84E-18 iu: 0.00E+00 rsn:   0
  1 2r: 7.45E-18 2x: 1.07E+06 2u: 3.92E-10 ir: 1.95E-18 iu: 6.08E-11 rsn: stol
 Step   2233 Time=  1.46750E+01 Dt=  8.33333E-03 [hour] snes_conv_reason:    4
  newton =   1 [   14613] linear =     1 [     14613] cuts =  0 [ 164]
  --> max chng: dpmx=   5.8208E-11

== RICHARDS FLOW ===============================================================
  0 2r: 7.45E-18 2x: 0.00E+00 2u: 0.00E+00 ir: 1.95E-18 iu: 0.00E+00 rsn:   0
  1 2r: 8.21E-18 2x: 1.07E+06 2u: 3.90E-10 ir: 1.84E-18 iu: 5.97E-11 rsn: stol
 Step   2234 Time=  1.46833E+01 Dt=  8.33333E-03 [hour] snes_conv_reason:    4
  newton =   1 [   14614] linear =     1 [     14614] cuts =  0 [ 164]
  --> max chng: dpmx=   5.8208E-11

== RICHARDS FLOW ===============================================================
  0 2r: 8.21E-18 2x: 0.00E+00 2u: 0.00E+00 ir: 1.84E-18 iu: 0.00E+00 rsn:   0
  1 2r: 7.45E-18 2x: 1.07E+06 2u: 3.92E-10 ir: 1.95E-18 iu: 6.08E-11 rsn: stol
 Step   2235 Time=  1.46917E+01 Dt=  8.33333E-03 [hour] snes_conv_reason:    4
  newton =   1 [   14615] linear =     1 [     14615] cuts =  0 [ 164]
  --> max chng: dpmx=   5.8208E-11

== RICHARDS FLOW ===============================================================
  0 2r: 7.45E-18 2x: 0.00E+00 2u: 0.00E+00 ir: 1.95E-18 iu: 0.00E+00 rsn:   0
  1 2r: 8.21E-18 2x: 1.07E+06 2u: 3.90E-10 ir: 1.84E-18 iu: 5.97E-11 rsn: stol
 Step   2236 Time=  1.47000E+01 Dt=  8.33333E-03 [hour] snes_conv_reason:    4
  newton =   1 [   14616] linear =     1 [     14616] cuts =  0 [ 164]
  --> max chng: dpmx=   5.8208E-11

== RICHARDS FLOW ===============================================================
  0 2r: 8.21E-18 2x: 0.00E+00 2u: 0.00E+00 ir: 1.84E-18 iu: 0.00E+00 rsn:   0
  1 2r: 7.45E-18 2x: 1.07E+06 2u: 3.92E-10 ir: 1.95E-18 iu: 6.08E-11 rsn: stol
 Step   2237 Time=  1.47083E+01 Dt=  8.33333E-03 [hour] snes_conv_reason:    4
  newton =   1 [   14617] linear =     1 [     14617] cuts =  0 [ 164]
  --> max chng: dpmx=   5.8208E-11

== RICHARDS FLOW ===============================================================
  0 2r: 7.45E-18 2x: 0.00E+00 2u: 0.00E+00 ir: 1.95E-18 iu: 0.00E+00 rsn:   0
  1 2r: 8.21E-18 2x: 1.07E+06 2u: 3.90E-10 ir: 1.84E-18 iu: 5.97E-11 rsn: stol
 Step   2238 Time=  1.47167E+01 Dt=  8.33333E-03 [hour] snes_conv_reason:    4
  newton =   1 [   14618] linear =     1 [     14618] cuts =  0 [ 164]
  --> max chng: dpmx=   5.8208E-11

== RICHARDS FLOW ===============================================================
  0 2r: 8.21E-18 2x: 0.00E+00 2u: 0.00E+00 ir: 1.84E-18 iu: 0.00E+00 rsn:   0
  1 2r: 7.45E-18 2x: 1.07E+06 2u: 3.92E-10 ir: 1.95E-18 iu: 6.08E-11 rsn: stol
 Step   2239 Time=  1.47250E+01 Dt=  8.33333E-03 [hour] snes_conv_reason:    4
  newton =   1 [   14619] linear =     1 [     14619] cuts =  0 [ 164]
  --> max chng: dpmx=   5.8208E-11

== RICHARDS FLOW ===============================================================
  0 2r: 7.45E-18 2x: 0.00E+00 2u: 0.00E+00 ir: 1.95E-18 iu: 0.00E+00 rsn:   0
  1 2r: 8.21E-18 2x: 1.07E+06 2u: 3.90E-10 ir: 1.84E-18 iu: 5.97E-11 rsn: stol
 Step   2240 Time=  1.47333E+01 Dt=  8.33333E-03 [hour] snes_conv_reason:    4
  newton =   1 [   14620] linear =     1 [     14620] cuts =  0 [ 164]
  --> max chng: dpmx=   5.8208E-11

== RICHARDS FLOW ===============================================================
  0 2r: 8.21E-18 2x: 0.00E+00 2u: 0.00E+00 ir: 1.84E-18 iu: 0.00E+00 rsn:   0
  1 2r: 7.45E-18 2x: 1.07E+06 2u: 3.92E-10 ir: 1.95E-18 iu: 6.08E-11 rsn: stol
 Step   2241 Time=  1.47417E+01 Dt=  8.33333E-03 [hour] snes_conv_reason:    4
  newton =   1 [   14621] linear =     1 [     14621] cuts =  0 [ 164]
  --> max chng: dpmx=   5.8208E-11

== RICHARDS FLOW ===============================================================
  0 2r: 7.45E-18 2x: 0.00E+00 2u: 0.00E+00 ir: 1.95E-18 iu: 0.00E+00 rsn:   0
  1 2r: 8.21E-18 2x: 1.07E+06 2u: 3.90E-10 ir: 1.84E-18 iu: 5.97E-11 rsn: stol
 Step   2242 Time=  1.47500E+01 Dt=  8.33333E-03 [hour] snes_conv_reason:    4
  newton =   1 [   14622] linear =     1 [     14622] cuts =  0 [ 164]
  --> max chng: dpmx=   5.8208E-11

== RICHARDS FLOW ===============================================================
  0 2r: 8.21E-18 2x: 0.00E+00 2u: 0.00E+00 ir: 1.84E-18 iu: 0.00E+00 rsn:   0
  1 2r: 7.45E-18 2x: 1.07E+06 2u: 3.92E-10 ir: 1.95E-18 iu: 6.08E-11 rsn: stol
 Step   2243 Time=  1.47583E+01 Dt=  8.33333E-03 [hour] snes_conv_reason:    4
  newton =   1 [   14623] linear =     1 [     14623] cuts =  0 [ 164]
  --> max chng: dpmx=   5.8208E-11

== RICHARDS FLOW ===============================================================
  0 2r: 7.45E-18 2x: 0.00E+00 2u: 0.00E+00 ir: 1.95E-18 iu: 0.00E+00 rsn:   0
  1 2r: 8.21E-18 2x: 1.07E+06 2u: 3.90E-10 ir: 1.84E-18 iu: 5.97E-11 rsn: stol
 Step   2244 Time=  1.47667E+01 Dt=  8.33333E-03 [hour] snes_conv_reason:    4
  newton =   1 [   14624] linear =     1 [     14624] cuts =  0 [ 164]
  --> max chng: dpmx=   5.8208E-11

== RICHARDS FLOW ===============================================================
  0 2r: 8.21E-18 2x: 0.00E+00 2u: 0.00E+00 ir: 1.84E-18 iu: 0.00E+00 rsn:   0
  1 2r: 7.45E-18 2x: 1.07E+06 2u: 3.92E-10 ir: 1.95E-18 iu: 6.08E-11 rsn: stol
 Step   2245 Time=  1.47750E+01 Dt=  8.33333E-03 [hour] snes_conv_reason:    4
  newton =   1 [   14625] linear =     1 [     14625] cuts =  0 [ 164]
  --> max chng: dpmx=   5.8208E-11

== RICHARDS FLOW ===============================================================
  0 2r: 7.45E-18 2x: 0.00E+00 2u: 0.00E+00 ir: 1.95E-18 iu: 0.00E+00 rsn:   0
  1 2r: 8.21E-18 2x: 1.07E+06 2u: 3.90E-10 ir: 1.84E-18 iu: 5.97E-11 rsn: stol
 Step   2246 Time=  1.47833E+01 Dt=  8.33333E-03 [hour] snes_conv_reason:    4
  newton =   1 [   14626] linear =     1 [     14626] cuts =  0 [ 164]
  --> max chng: dpmx=   5.8208E-11

== RICHARDS FLOW ===============================================================
  0 2r: 8.21E-18 2x: 0.00E+00 2u: 0.00E+00 ir: 1.84E-18 iu: 0.00E+00 rsn:   0
  1 2r: 7.45E-18 2x: 1.07E+06 2u: 3.92E-10 ir: 1.95E-18 iu: 6.08E-11 rsn: stol
 Step   2247 Time=  1.47917E+01 Dt=  8.33333E-03 [hour] snes_conv_reason:    4
  newton =   1 [   14627] linear =     1 [     14627] cuts =  0 [ 164]
  --> max chng: dpmx=   5.8208E-11

== RICHARDS FLOW ===============================================================
  0 2r: 7.45E-18 2x: 0.00E+00 2u: 0.00E+00 ir: 1.95E-18 iu: 0.00E+00 rsn:   0
  1 2r: 8.21E-18 2x: 1.07E+06 2u: 3.90E-10 ir: 1.84E-18 iu: 5.97E-11 rsn: stol
 Step   2248 Time=  1.48000E+01 Dt=  8.33333E-03 [hour] snes_conv_reason:    4
  newton =   1 [   14628] linear =     1 [     14628] cuts =  0 [ 164]
  --> max chng: dpmx=   5.8208E-11

== RICHARDS FLOW ===============================================================
  0 2r: 8.21E-18 2x: 0.00E+00 2u: 0.00E+00 ir: 1.84E-18 iu: 0.00E+00 rsn:   0
  1 2r: 7.45E-18 2x: 1.07E+06 2u: 3.92E-10 ir: 1.95E-18 iu: 6.08E-11 rsn: stol
 Step   2249 Time=  1.48083E+01 Dt=  8.33333E-03 [hour] snes_conv_reason:    4
  newton =   1 [   14629] linear =     1 [     14629] cuts =  0 [ 164]
  --> max chng: dpmx=   5.8208E-11

== RICHARDS FLOW ===============================================================
  0 2r: 7.45E-18 2x: 0.00E+00 2u: 0.00E+00 ir: 1.95E-18 iu: 0.00E+00 rsn:   0
  1 2r: 8.21E-18 2x: 1.07E+06 2u: 3.90E-10 ir: 1.84E-18 iu: 5.97E-11 rsn: stol
 Step   2250 Time=  1.48167E+01 Dt=  8.33333E-03 [hour] snes_conv_reason:    4
  newton =   1 [   14630] linear =     1 [     14630] cuts =  0 [ 164]
  --> max chng: dpmx=   5.8208E-11

== RICHARDS FLOW ===============================================================
  0 2r: 8.21E-18 2x: 0.00E+00 2u: 0.00E+00 ir: 1.84E-18 iu: 0.00E+00 rsn:   0
  1 2r: 7.45E-18 2x: 1.07E+06 2u: 3.92E-10 ir: 1.95E-18 iu: 6.08E-11 rsn: stol
 Step   2251 Time=  1.48250E+01 Dt=  8.33333E-03 [hour] snes_conv_reason:    4
  newton =   1 [   14631] linear =     1 [     14631] cuts =  0 [ 164]
  --> max chng: dpmx=   5.8208E-11

== RICHARDS FLOW ===============================================================
  0 2r: 7.45E-18 2x: 0.00E+00 2u: 0.00E+00 ir: 1.95E-18 iu: 0.00E+00 rsn:   0
  1 2r: 8.21E-18 2x: 1.07E+06 2u: 3.90E-10 ir: 1.84E-18 iu: 5.97E-11 rsn: stol
 Step   2252 Time=  1.48333E+01 Dt=  8.33333E-03 [hour] snes_conv_reason:    4
  newton =   1 [   14632] linear =     1 [     14632] cuts =  0 [ 164]
  --> max chng: dpmx=   5.8208E-11

== RICHARDS FLOW ===============================================================
  0 2r: 8.21E-18 2x: 0.00E+00 2u: 0.00E+00 ir: 1.84E-18 iu: 0.00E+00 rsn:   0
  1 2r: 7.45E-18 2x: 1.07E+06 2u: 3.92E-10 ir: 1.95E-18 iu: 6.08E-11 rsn: stol
 Step   2253 Time=  1.48417E+01 Dt=  8.33333E-03 [hour] snes_conv_reason:    4
  newton =   1 [   14633] linear =     1 [     14633] cuts =  0 [ 164]
  --> max chng: dpmx=   5.8208E-11

== RICHARDS FLOW ===============================================================
  0 2r: 7.45E-18 2x: 0.00E+00 2u: 0.00E+00 ir: 1.95E-18 iu: 0.00E+00 rsn:   0
  1 2r: 8.21E-18 2x: 1.07E+06 2u: 3.90E-10 ir: 1.84E-18 iu: 5.97E-11 rsn: stol
 Step   2254 Time=  1.48500E+01 Dt=  8.33333E-03 [hour] snes_conv_reason:    4
  newton =   1 [   14634] linear =     1 [     14634] cuts =  0 [ 164]
  --> max chng: dpmx=   5.8208E-11

== RICHARDS FLOW ===============================================================
  0 2r: 8.21E-18 2x: 0.00E+00 2u: 0.00E+00 ir: 1.84E-18 iu: 0.00E+00 rsn:   0
  1 2r: 7.45E-18 2x: 1.07E+06 2u: 3.92E-10 ir: 1.95E-18 iu: 6.08E-11 rsn: stol
 Step   2255 Time=  1.48583E+01 Dt=  8.33333E-03 [hour] snes_conv_reason:    4
  newton =   1 [   14635] linear =     1 [     14635] cuts =  0 [ 164]
  --> max chng: dpmx=   5.8208E-11

== RICHARDS FLOW ===============================================================
  0 2r: 7.45E-18 2x: 0.00E+00 2u: 0.00E+00 ir: 1.95E-18 iu: 0.00E+00 rsn:   0
  1 2r: 8.21E-18 2x: 1.07E+06 2u: 3.90E-10 ir: 1.84E-18 iu: 5.97E-11 rsn: stol
 Step   2256 Time=  1.48667E+01 Dt=  8.33333E-03 [hour] snes_conv_reason:    4
  newton =   1 [   14636] linear =     1 [     14636] cuts =  0 [ 164]
  --> max chng: dpmx=   5.8208E-11

== RICHARDS FLOW ===============================================================
  0 2r: 8.21E-18 2x: 0.00E+00 2u: 0.00E+00 ir: 1.84E-18 iu: 0.00E+00 rsn:   0
  1 2r: 7.45E-18 2x: 1.07E+06 2u: 3.92E-10 ir: 1.95E-18 iu: 6.08E-11 rsn: stol
 Step   2257 Time=  1.48750E+01 Dt=  8.33333E-03 [hour] snes_conv_reason:    4
  newton =   1 [   14637] linear =     1 [     14637] cuts =  0 [ 164]
  --> max chng: dpmx=   5.8208E-11

== RICHARDS FLOW ===============================================================
  0 2r: 7.45E-18 2x: 0.00E+00 2u: 0.00E+00 ir: 1.95E-18 iu: 0.00E+00 rsn:   0
  1 2r: 8.21E-18 2x: 1.07E+06 2u: 3.90E-10 ir: 1.84E-18 iu: 5.97E-11 rsn: stol
 Step   2258 Time=  1.48833E+01 Dt=  8.33333E-03 [hour] snes_conv_reason:    4
  newton =   1 [   14638] linear =     1 [     14638] cuts =  0 [ 164]
  --> max chng: dpmx=   5.8208E-11

== RICHARDS FLOW ===============================================================
  0 2r: 8.21E-18 2x: 0.00E+00 2u: 0.00E+00 ir: 1.84E-18 iu: 0.00E+00 rsn:   0
  1 2r: 7.45E-18 2x: 1.07E+06 2u: 3.92E-10 ir: 1.95E-18 iu: 6.08E-11 rsn: stol
 Step   2259 Time=  1.48917E+01 Dt=  8.33333E-03 [hour] snes_conv_reason:    4
  newton =   1 [   14639] linear =     1 [     14639] cuts =  0 [ 164]
  --> max chng: dpmx=   5.8208E-11

== RICHARDS FLOW ===============================================================
  0 2r: 7.45E-18 2x: 0.00E+00 2u: 0.00E+00 ir: 1.95E-18 iu: 0.00E+00 rsn:   0
  1 2r: 8.21E-18 2x: 1.07E+06 2u: 3.90E-10 ir: 1.84E-18 iu: 5.97E-11 rsn: stol
 Step   2260 Time=  1.49000E+01 Dt=  8.33333E-03 [hour] snes_conv_reason:    4
  newton =   1 [   14640] linear =     1 [     14640] cuts =  0 [ 164]
  --> max chng: dpmx=   5.8208E-11

== RICHARDS FLOW ===============================================================
  0 2r: 8.21E-18 2x: 0.00E+00 2u: 0.00E+00 ir: 1.84E-18 iu: 0.00E+00 rsn:   0
  1 2r: 7.45E-18 2x: 1.07E+06 2u: 3.92E-10 ir: 1.95E-18 iu: 6.08E-11 rsn: stol
 Step   2261 Time=  1.49083E+01 Dt=  8.33333E-03 [hour] snes_conv_reason:    4
  newton =   1 [   14641] linear =     1 [     14641] cuts =  0 [ 164]
  --> max chng: dpmx=   5.8208E-11

== RICHARDS FLOW ===============================================================
  0 2r: 7.45E-18 2x: 0.00E+00 2u: 0.00E+00 ir: 1.95E-18 iu: 0.00E+00 rsn:   0
  1 2r: 8.21E-18 2x: 1.07E+06 2u: 3.90E-10 ir: 1.84E-18 iu: 5.97E-11 rsn: stol
 Step   2262 Time=  1.49167E+01 Dt=  8.33333E-03 [hour] snes_conv_reason:    4
  newton =   1 [   14642] linear =     1 [     14642] cuts =  0 [ 164]
  --> max chng: dpmx=   5.8208E-11

== RICHARDS FLOW ===============================================================
  0 2r: 8.21E-18 2x: 0.00E+00 2u: 0.00E+00 ir: 1.84E-18 iu: 0.00E+00 rsn:   0
  1 2r: 7.45E-18 2x: 1.07E+06 2u: 3.92E-10 ir: 1.95E-18 iu: 6.08E-11 rsn: stol
 Step   2263 Time=  1.49250E+01 Dt=  8.33333E-03 [hour] snes_conv_reason:    4
  newton =   1 [   14643] linear =     1 [     14643] cuts =  0 [ 164]
  --> max chng: dpmx=   5.8208E-11

== RICHARDS FLOW ===============================================================
  0 2r: 7.45E-18 2x: 0.00E+00 2u: 0.00E+00 ir: 1.95E-18 iu: 0.00E+00 rsn:   0
  1 2r: 8.21E-18 2x: 1.07E+06 2u: 3.90E-10 ir: 1.84E-18 iu: 5.97E-11 rsn: stol
 Step   2264 Time=  1.49333E+01 Dt=  8.33333E-03 [hour] snes_conv_reason:    4
  newton =   1 [   14644] linear =     1 [     14644] cuts =  0 [ 164]
  --> max chng: dpmx=   5.8208E-11

== RICHARDS FLOW ===============================================================
  0 2r: 8.21E-18 2x: 0.00E+00 2u: 0.00E+00 ir: 1.84E-18 iu: 0.00E+00 rsn:   0
  1 2r: 7.45E-18 2x: 1.07E+06 2u: 3.92E-10 ir: 1.95E-18 iu: 6.08E-11 rsn: stol
 Step   2265 Time=  1.49417E+01 Dt=  8.33333E-03 [hour] snes_conv_reason:    4
  newton =   1 [   14645] linear =     1 [     14645] cuts =  0 [ 164]
  --> max chng: dpmx=   5.8208E-11

== RICHARDS FLOW ===============================================================
  0 2r: 7.45E-18 2x: 0.00E+00 2u: 0.00E+00 ir: 1.95E-18 iu: 0.00E+00 rsn:   0
  1 2r: 8.21E-18 2x: 1.07E+06 2u: 3.90E-10 ir: 1.84E-18 iu: 5.97E-11 rsn: stol
 Step   2266 Time=  1.49500E+01 Dt=  8.33333E-03 [hour] snes_conv_reason:    4
  newton =   1 [   14646] linear =     1 [     14646] cuts =  0 [ 164]
  --> max chng: dpmx=   5.8208E-11

== RICHARDS FLOW ===============================================================
  0 2r: 8.21E-18 2x: 0.00E+00 2u: 0.00E+00 ir: 1.84E-18 iu: 0.00E+00 rsn:   0
  1 2r: 7.45E-18 2x: 1.07E+06 2u: 3.92E-10 ir: 1.95E-18 iu: 6.08E-11 rsn: stol
 Step   2267 Time=  1.49583E+01 Dt=  8.33333E-03 [hour] snes_conv_reason:    4
  newton =   1 [   14647] linear =     1 [     14647] cuts =  0 [ 164]
  --> max chng: dpmx=   5.8208E-11

== RICHARDS FLOW ===============================================================
  0 2r: 7.45E-18 2x: 0.00E+00 2u: 0.00E+00 ir: 1.95E-18 iu: 0.00E+00 rsn:   0
  1 2r: 8.21E-18 2x: 1.07E+06 2u: 3.90E-10 ir: 1.84E-18 iu: 5.97E-11 rsn: stol
 Step   2268 Time=  1.49667E+01 Dt=  8.33333E-03 [hour] snes_conv_reason:    4
  newton =   1 [   14648] linear =     1 [     14648] cuts =  0 [ 164]
  --> max chng: dpmx=   5.8208E-11

== RICHARDS FLOW ===============================================================
  0 2r: 8.21E-18 2x: 0.00E+00 2u: 0.00E+00 ir: 1.84E-18 iu: 0.00E+00 rsn:   0
  1 2r: 7.45E-18 2x: 1.07E+06 2u: 3.92E-10 ir: 1.95E-18 iu: 6.08E-11 rsn: stol
 Step   2269 Time=  1.49750E+01 Dt=  8.33333E-03 [hour] snes_conv_reason:    4
  newton =   1 [   14649] linear =     1 [     14649] cuts =  0 [ 164]
  --> max chng: dpmx=   5.8208E-11

== RICHARDS FLOW ===============================================================
  0 2r: 7.45E-18 2x: 0.00E+00 2u: 0.00E+00 ir: 1.95E-18 iu: 0.00E+00 rsn:   0
  1 2r: 8.21E-18 2x: 1.07E+06 2u: 3.90E-10 ir: 1.84E-18 iu: 5.97E-11 rsn: stol
 Step   2270 Time=  1.49833E+01 Dt=  8.33333E-03 [hour] snes_conv_reason:    4
  newton =   1 [   14650] linear =     1 [     14650] cuts =  0 [ 164]
  --> max chng: dpmx=   5.8208E-11

== RICHARDS FLOW ===============================================================
  0 2r: 8.21E-18 2x: 0.00E+00 2u: 0.00E+00 ir: 1.84E-18 iu: 0.00E+00 rsn:   0
  1 2r: 7.45E-18 2x: 1.07E+06 2u: 3.92E-10 ir: 1.95E-18 iu: 6.08E-11 rsn: stol
 Step   2271 Time=  1.49917E+01 Dt=  8.33333E-03 [hour] snes_conv_reason:    4
  newton =   1 [   14651] linear =     1 [     14651] cuts =  0 [ 164]
  --> max chng: dpmx=   5.8208E-11

== RICHARDS FLOW ===============================================================
  0 2r: 7.45E-18 2x: 0.00E+00 2u: 0.00E+00 ir: 1.95E-18 iu: 0.00E+00 rsn:   0
  1 2r: 8.21E-18 2x: 1.07E+06 2u: 3.90E-10 ir: 1.84E-18 iu: 5.97E-11 rsn: stol
 Step   2272 Time=  1.50000E+01 Dt=  8.33333E-03 [hour] snes_conv_reason:    4
  newton =   1 [   14652] linear =     1 [     14652] cuts =  0 [ 164]
  --> max chng: dpmx=   5.8208E-11

 Wall Clock Time:  5.1602E+00 [sec]   8.6003E-02 [min]   1.4334E-03 [hr]
